/expanse/lustre/projects/slc103/sbore/research_storage/ice_liquid_interface/TIP4P_ICE/IceIII_Liquidv2/4-PrepareCoexistenceConfiguration
exp-5-02
Sun Jan 16 10:15:59 PST 2022
/expanse/lustre/projects/slc103/sbore/research_storage/ice_liquid_interface/TIP4P_ICE/IceIII_Liquidv2/4-PrepareCoexistenceConfiguration/IceIII_8000atm_255K
/expanse/lustre/projects/slc103/sbore/research_storage/ice_liquid_interface/TIP4P_ICE/IceIII_Liquidv2/4-PrepareCoexistenceConfiguration/IceIII_2000atm_260K
/expanse/lustre/projects/slc103/sbore/research_storage/ice_liquid_interface/TIP4P_ICE/IceIII_Liquidv2/4-PrepareCoexistenceConfiguration/IceIII_4000atm_250K
/expanse/lustre/projects/slc103/sbore/research_storage/ice_liquid_interface/TIP4P_ICE/IceIII_Liquidv2/4-PrepareCoexistenceConfiguration/IceIII_4000atm_255K
LAMMPS (30 Jul 2021)
LAMMPS (30 Jul 2021)
LAMMPS (30 Jul 2021)
LAMMPS (30 Jul 2021)
using multi-threaded neighbor list subroutines
using multi-threaded neighbor list subroutines
using multi-threaded neighbor list subroutines
using multi-threaded neighbor list subroutines

include		in.partitions

include		in.partitions

include		in.partitions

include		in.partitions
variable        pid world 0
variable        pid world 0
variable        pid world 0
variable        pid world 0
include		in.temp
include		in.temp
include		in.temp
include		in.temp
variable        temperature equal 260
variable	tempDamp equal 100.0
variable        temperature equal 255
variable	tempDamp equal 100.0
variable        temperature equal 250
variable	tempDamp equal 100.0
variable        temperature equal 255
variable	tempDamp equal 100.0
include		in.pressure
include		in.pressure
include		in.pressure
include		in.pressure
variable        pressure equal 8000
variable        pressureDamp equal 1000.0 # This is 1 ps
variable        pressure equal 2000
variable        pressureDamp equal 1000.0 # This is 1 ps
include		in.seed
variable        pressure equal 4000
variable        pressureDamp equal 1000.0 # This is 1 ps
variable        pressure equal 4000
variable        pressureDamp equal 1000.0 # This is 1 ps
include		in.seed
include		in.seed
include		in.seed
variable        seed world 745823

units		real
atom_style	full
include		in.box
variable        seed world 745823

variable        seed world 745823

variable        seed world 745823

units		real
atom_style	full
units		real
atom_style	full
units		real
atom_style	full
include		in.box
include		in.box
include		in.box
read_data       iceIII.data
read_data       iceIII.data
read_data       iceIII.data
read_data       iceIII.data
Reading data file ...
Reading data file ...
Reading data file ...
Reading data file ...
  orthogonal box = (0.0071020000 0.0044740000 -0.050387000) to (46.652896 19.995527 20.750385)
  orthogonal box = (0.0071020000 0.0044740000 -0.050387000) to (46.652896 19.995527 20.750385)
  orthogonal box = (0.0071020000 0.0044740000 -0.050387000) to (46.652896 19.995527 20.750385)
  orthogonal box = (0.0071020000 0.0044740000 -0.050387000) to (46.652896 19.995527 20.750385)
  reading atoms ...
  reading atoms ...
  reading atoms ...
  reading atoms ...
  2268 atoms
  scanning bonds ...
  scanning angles ...
  2268 atoms
  reading bonds ...
  scanning bonds ...
  scanning angles ...
  1512 bonds
  reading angles ...
  756 angles
  2268 atoms
  2268 atoms
  scanning bonds ...
  reading bonds ...
  scanning angles ...
  scanning bonds ...
  1512 bonds
  reading angles ...
  scanning angles ...
  reading bonds ...
  reading bonds ...
  1512 bonds
  reading angles ...
  756 angles
  756 angles
Finding 1-2 1-3 1-4 neighbors ...
Finding 1-2 1-3 1-4 neighbors ...
Finding 1-2 1-3 1-4 neighbors ...
  1512 bonds
  reading angles ...
  756 angles
Finding 1-2 1-3 1-4 neighbors ...
     2 = max # of 1-2 neighbors
     1 = max # of 1-3 neighbors
     1 = max # of 1-4 neighbors
     2 = max # of special neighbors
include 	in.setup
     2 = max # of 1-2 neighbors
     1 = max # of 1-3 neighbors
     1 = max # of 1-4 neighbors
     2 = max # of special neighbors
variable	out_freq equal 500
variable	out_freq2 equal 500

timestep	2.0

neigh_modify    delay 7 every 1

include		in.tip4p
include 	in.setup
variable	out_freq equal 500
variable	out_freq2 equal 500

timestep	2.0

neigh_modify    delay 7 every 1
# This is TIP4P/Ice

# create groups ###
group ox type 2
756 atoms in group ox
group hy type 1

include		in.tip4p
1512 atoms in group hy

# set charges - beside manually ###
set group ox charge -1.1794
Setting atom values ...
  756 settings made for charge
set group hy charge 0.5897
Setting atom values ...
  1512 settings made for charge

# ### TIP3P Potential Parameters ###
pair_style lj/cut/tip4p/long 2 1 1 1 0.1577 8.5
pair_coeff 1 1*2 0.000 0.000
pair_coeff 2 2 0.21084 3.1668
bond_style  harmonic
bond_coeff  1 450 0.9572
angle_style harmonic
angle_coeff 1 55 104.52
kspace_style pppm/tip4p 1.0e-5
pair_modify tail yes

thermo          500
thermo_style 	custom step temp pe etotal epair emol press lx ly lz xy xz yz vol pxx pyy pzz pxy pxz pyz cella cellb cellc cellalpha cellbeta cellgamma

restart 	500 restart.lmp.0 restart2.lmp.0

include         in.dump
# This is TIP4P/Ice

# create groups ###
group ox type 2
dump            myDump all atom 500 dump.water.0
dump            myDump2 all dcd 500 dump.dcd
756 atoms in group ox
group hy type 1
1512 atoms in group hy

# set charges - beside manually ###
set group ox charge -1.1794
Setting atom values ...
  756 settings made for charge
set group hy charge 0.5897
Setting atom values ...
  1512 settings made for charge

# ### TIP3P Potential Parameters ###
pair_style lj/cut/tip4p/long 2 1 1 1 0.1577 8.5
pair_coeff 1 1*2 0.000 0.000
pair_coeff 2 2 0.21084 3.1668
bond_style  harmonic
bond_coeff  1 450 0.9572
angle_style harmonic
angle_coeff 1 55 104.52
kspace_style pppm/tip4p 1.0e-5
pair_modify tail yes
dump_modify     myDump append yes
dump_modify     myDump2 append yes

thermo          500
thermo_style 	custom step temp pe etotal epair emol press lx ly lz xy xz yz vol pxx pyy pzz pxy pxz pyz cella cellb cellc cellalpha cellbeta cellgamma

restart 	500 restart.lmp.0 restart2.lmp.0

timer           timeout 04:55:00 every 1000
New timer settings: style=normal  mode=nosync  timeout=04:55:00

fix 		1 all shake 1e-6 200 0 b 1 a 1

include         in.dump
Finding SHAKE clusters ...
       0 = # of size 2 clusters
       0 = # of size 3 clusters
       0 = # of size 4 clusters
     756 = # of frozen angles
  find clusters CPU = 0.001 seconds
fix             2 all nph aniso 2000 2000 1000
fix             3 all temp/csvr 260 260 100 745823
dump            myDump all atom 500 dump.water.0
velocity 	all create 260 745823 dist gaussian
dump            myDump2 all dcd 500 dump.dcd
dump_modify     myDump append yes
dump_modify     myDump2 append yes

timer           timeout 04:55:00 every 1000
New timer settings: style=normal  mode=nosync  timeout=04:55:00

fix 		1 all shake 1e-6 200 0 b 1 a 1
Finding SHAKE clusters ...
     2 = max # of 1-2 neighbors
     1 = max # of 1-3 neighbors
     1 = max # of 1-4 neighbors
     2 = max # of special neighbors
include 	in.setup

run             500000
PPPM initialization ...
  extracting TIP4P info from pair style
variable	out_freq equal 500
variable	out_freq2 equal 500

timestep	2.0

neigh_modify    delay 7 every 1

include		in.tip4p
       0 = # of size 2 clusters
       0 = # of size 3 clusters
       0 = # of size 4 clusters
     756 = # of frozen angles
  find clusters CPU = 0.002 seconds
fix             2 all nph aniso 8000 8000 1000
fix             3 all temp/csvr 255 255 100 745823
velocity 	all create 255 745823 dist gaussian
  G vector (1/distance) = 0.3731327
  grid = 48 27 27
  stencil order = 5
  estimated absolute RMS force accuracy = 0.0032773105
  estimated relative force accuracy = 9.8695233e-06
  3d grid and FFT values/proc = 6292 1344
# This is TIP4P/Ice

# create groups ###
group ox type 2

run             500000
PPPM initialization ...
  extracting TIP4P info from pair style
756 atoms in group ox
group hy type 1
1512 atoms in group hy

# set charges - beside manually ###
set group ox charge -1.1794
Setting atom values ...
  756 settings made for charge
set group hy charge 0.5897
Setting atom values ...
  1512 settings made for charge

# ### TIP3P Potential Parameters ###
pair_style lj/cut/tip4p/long 2 1 1 1 0.1577 8.5
  G vector (1/distance) = 0.3731327
  grid = 48 27 27
  stencil order = 5
  estimated absolute RMS force accuracy = 0.0032773105
  estimated relative force accuracy = 9.8695233e-06
  3d grid and FFT values/proc = 6292 1344
pair_coeff 1 1*2 0.000 0.000
pair_coeff 2 2 0.21084 3.1668
bond_style  harmonic
bond_coeff  1 450 0.9572
angle_style harmonic
angle_coeff 1 55 104.52
kspace_style pppm/tip4p 1.0e-5
pair_modify tail yes

thermo          500
thermo_style 	custom step temp pe etotal epair emol press lx ly lz xy xz yz vol pxx pyy pzz pxy pxz pyz cella cellb cellc cellalpha cellbeta cellgamma

restart 	500 restart.lmp.0 restart2.lmp.0

include         in.dump
dump            myDump all atom 500 dump.water.0
dump            myDump2 all dcd 500 dump.dcd
dump_modify     myDump append yes
dump_modify     myDump2 append yes

timer           timeout 04:55:00 every 1000
New timer settings: style=normal  mode=nosync  timeout=04:55:00

fix 		1 all shake 1e-6 200 0 b 1 a 1
Finding SHAKE clusters ...
       0 = # of size 2 clusters
       0 = # of size 3 clusters
       0 = # of size 4 clusters
     756 = # of frozen angles
  find clusters CPU = 0.001 seconds
fix             2 all nph aniso 4000 4000 1000
fix             3 all temp/csvr 255 255 100 745823
velocity 	all create 255 745823 dist gaussian
     2 = max # of 1-2 neighbors

run             500000
PPPM initialization ...
  extracting TIP4P info from pair style
     1 = max # of 1-3 neighbors
     1 = max # of 1-4 neighbors
     2 = max # of special neighbors
  G vector (1/distance) = 0.3731327
  grid = 48 27 27
  stencil order = 5
  estimated absolute RMS force accuracy = 0.0032773105
  estimated relative force accuracy = 9.8695233e-06
  3d grid and FFT values/proc = 6292 1344
include 	in.setup
variable	out_freq equal 500
variable	out_freq2 equal 500

timestep	2.0

neigh_modify    delay 7 every 1

include		in.tip4p
# This is TIP4P/Ice

# create groups ###
group ox type 2
756 atoms in group ox
group hy type 1
1512 atoms in group hy

# set charges - beside manually ###
set group ox charge -1.1794
Setting atom values ...
  756 settings made for charge
set group hy charge 0.5897
Setting atom values ...
  1512 settings made for charge

# ### TIP3P Potential Parameters ###
pair_style lj/cut/tip4p/long 2 1 1 1 0.1577 8.5
pair_coeff 1 1*2 0.000 0.000
pair_coeff 2 2 0.21084 3.1668
bond_style  harmonic
bond_coeff  1 450 0.9572
angle_style harmonic
angle_coeff 1 55 104.52
kspace_style pppm/tip4p 1.0e-5
pair_modify tail yes

thermo          500
thermo_style 	custom step temp pe etotal epair emol press lx ly lz xy xz yz vol pxx pyy pzz pxy pxz pyz cella cellb cellc cellalpha cellbeta cellgamma

restart 	500 restart.lmp.0 restart2.lmp.0

include         in.dump
dump            myDump all atom 500 dump.water.0
dump            myDump2 all dcd 500 dump.dcd
dump_modify     myDump append yes
dump_modify     myDump2 append yes

timer           timeout 04:55:00 every 1000
New timer settings: style=normal  mode=nosync  timeout=04:55:00

fix 		1 all shake 1e-6 200 0 b 1 a 1
Finding SHAKE clusters ...
       0 = # of size 2 clusters
       0 = # of size 3 clusters
       0 = # of size 4 clusters
     756 = # of frozen angles
  find clusters CPU = 0.000 seconds
fix             2 all nph aniso 4000 4000 1000
fix             3 all temp/csvr 250 250 100 745823
velocity 	all create 250 745823 dist gaussian

run             500000
PPPM initialization ...
  extracting TIP4P info from pair style
  G vector (1/distance) = 0.3731327
  grid = 48 27 27
  stencil order = 5
  estimated absolute RMS force accuracy = 0.0032773105
  estimated relative force accuracy = 9.8695233e-06
  3d grid and FFT values/proc = 6292 1344
Last active /omp style is kspace_style pppm/tip4p/omp
  update every 1 steps, delay 7 steps, check yes
Last active /omp style is kspace_style pppm/tip4p/omp
  update every 1 steps, delay 7 steps, check yes
Setting up Verlet run ...
  Unit style    : real
  Current step  : 0
  Time step     : 2
  Walltime left : 4:54:59.89
Setting up Verlet run ...
  Unit style    : real
  Current step  : 0
  Time step     : 2
  Walltime left : 4:54:59.89
Last active /omp style is kspace_style pppm/tip4p/omp
  update every 1 steps, delay 7 steps, check yes
Last active /omp style is kspace_style pppm/tip4p/omp
  update every 1 steps, delay 7 steps, check yes
Setting up Verlet run ...
  Unit style    : real
  Current step  : 0
  Time step     : 2
  Walltime left : 4:54:59.90
Setting up Verlet run ...
  Unit style    : real
  Current step  : 0
  Time step     : 2
  Walltime left : 4:54:59.90
Step Temp PotEng TotEng E_pair E_mol Press Lx Ly Lz Xy Xz Yz Volume Pxx Pyy Pzz Pxy Pxz Pyz Cella Cellb Cellc CellAlpha CellBeta CellGamma
0          250   -11706.567   -10580.566   -11706.567            0    2202.2052    46.645794    19.991053    20.800772            0            0            0     19396.69    5160.9968    3200.5121   -1754.8933    1594.9869   -1516.8302   -166.15297    46.645794    19.991053    20.800772           90           90           90
Step Temp PotEng TotEng E_pair E_mol Press Lx Ly Lz Xy Xz Yz Volume Pxx Pyy Pzz Pxy Pxz Pyz Cella Cellb Cellc CellAlpha CellBeta CellGamma
0          255   -11706.567   -10558.046   -11706.567            0      2244.08    46.645794    19.991053    20.800772            0            0            0     19396.69    5206.3866    3233.9379   -1708.0846    1609.2811    -1520.884   -170.89494    46.645794    19.991053    20.800772           90           90           90
Step Temp PotEng TotEng E_pair E_mol Press Lx Ly Lz Xy Xz Yz Volume Pxx Pyy Pzz Pxy Pxz Pyz Cella Cellb Cellc CellAlpha CellBeta CellGamma
0          255   -11706.567   -10558.046   -11706.567            0      2244.08    46.645794    19.991053    20.800772            0            0            0     19396.69    5206.3866    3233.9379   -1708.0846    1609.2811    -1520.884   -170.89494    46.645794    19.991053    20.800772           90           90           90
Averages over the last 7 of 14 rows, steps 1500 to 2500:
Temp PotEng TotEng E_pair E_mol Press Lx Ly Lz Xy Xz Yz Volume Pxx Pyy Pzz Pxy Pxz Pyz Cella Cellb Cellc CellAlpha CellBeta CellGamma
257.795 -10985.1 -9824.04 -10985.1 0 5514.72 46.523 20.0006 20.7049 0 0 0 19265.7 5833.1 5317.83 5393.23 62.5731 -45.4922 226.042 46.523 20.0006 20.7049 90 90 90
Step Temp PotEng TotEng E_pair E_mol Press Lx Ly Lz Xy Xz Yz Volume Pxx Pyy Pzz Pxy Pxz Pyz Cella Cellb Cellc CellAlpha CellBeta CellGamma
0          260   -11706.567   -10535.526   -11706.567            0    2285.8901    46.645794    19.991053    20.800772            0            0            0     19396.69    5251.6641    3267.3946   -1661.3883    1623.4411   -1524.8903   -175.59418    46.645794    19.991053    20.800772           90           90           90
Averages over the last 1950 of 3899 rows, steps 254500 to 500000:
Temp PotEng TotEng E_pair E_mol Press Lx Ly Lz Xy Xz Yz Volume Pxx Pyy Pzz Pxy Pxz Pyz Cella Cellb Cellc CellAlpha CellBeta CellGamma
255.143 -10972.1 -9822.97 -10972.1 0 4471.76 46.7392 20.0156 20.7903 0 0 0 19451.1 4443.28 4500 4471.98 -56.2381 33.0963 80.1638 46.7392 20.0156 20.7903 90 90 90
Loop time of 1404.71 on 32 procs for 500000 steps with 2268 atoms

unfix		3
unfix		2
unfix		1

write_data	data.final.0
System init for write_data ...
PPPM initialization ...
  extracting TIP4P info from pair style
  G vector (1/distance) = 0.37231145
  grid = 48 27 27
  stencil order = 5
  estimated absolute RMS force accuracy = 0.0033811182
  estimated relative force accuracy = 1.0182137e-05
  3d grid and FFT values/proc = 6006 1344
Last active /omp style is kspace_style pppm/tip4p/omp

write_restart   restart.lmp.0
System init for write_restart ...
PPPM initialization ...
  extracting TIP4P info from pair style
  G vector (1/distance) = 0.37231145
  grid = 48 27 27
  stencil order = 5
  estimated absolute RMS force accuracy = 0.0033811182
  estimated relative force accuracy = 1.0182137e-05
  3d grid and FFT values/proc = 6006 1344
Last active /omp style is kspace_style pppm/tip4p/omp
Loop time of 1435.95 on 32 procs for 500000 steps with 2268 atoms

unfix		3
unfix		2
unfix		1

write_data	data.final.0
System init for write_data ...
PPPM initialization ...
  extracting TIP4P info from pair style
  G vector (1/distance) = 0.37288476
  grid = 48 27 27
  stencil order = 5
  estimated absolute RMS force accuracy = 0.0033083835
  estimated relative force accuracy = 9.9630986e-06
  3d grid and FFT values/proc = 6292 1344
Last active /omp style is kspace_style pppm/tip4p/omp

write_restart   restart.lmp.0
System init for write_restart ...
PPPM initialization ...
  extracting TIP4P info from pair style
  G vector (1/distance) = 0.37288476
  grid = 48 27 27
  stencil order = 5
  estimated absolute RMS force accuracy = 0.0033083835
  estimated relative force accuracy = 9.9630986e-06
  3d grid and FFT values/proc = 6292 1344
Last active /omp style is kspace_style pppm/tip4p/omp
Loop time of 1438.98 on 32 procs for 500000 steps with 2268 atoms

unfix		3
unfix		2
unfix		1

write_data	data.final.0
System init for write_data ...
PPPM initialization ...
  extracting TIP4P info from pair style
  G vector (1/distance) = 0.37266314
  grid = 48 27 27
  stencil order = 5
  estimated absolute RMS force accuracy = 0.0033372777
  estimated relative force accuracy = 1.0050113e-05
  3d grid and FFT values/proc = 6006 1344
Last active /omp style is kspace_style pppm/tip4p/omp

write_restart   restart.lmp.0
System init for write_restart ...
PPPM initialization ...
  extracting TIP4P info from pair style
  G vector (1/distance) = 0.37266314
  grid = 48 27 27
  stencil order = 5
  estimated absolute RMS force accuracy = 0.0033372777
  estimated relative force accuracy = 1.0050113e-05
  3d grid and FFT values/proc = 6006 1344
Last active /omp style is kspace_style pppm/tip4p/omp
Loop time of 1450.69 on 32 procs for 500000 steps with 2268 atoms

unfix		3
unfix		2
unfix		1

write_data	data.final.0
System init for write_data ...
PPPM initialization ...
  extracting TIP4P info from pair style
  G vector (1/distance) = 0.37366517
  grid = 48 27 27
  stencil order = 5
  estimated absolute RMS force accuracy = 0.0032163846
  estimated relative force accuracy = 9.6860467e-06
  3d grid and FFT values/proc = 6292 1344
Last active /omp style is kspace_style pppm/tip4p/omp

write_restart   restart.lmp.0
System init for write_restart ...
PPPM initialization ...
  extracting TIP4P info from pair style
  G vector (1/distance) = 0.37366517
  grid = 48 27 27
  stencil order = 5
  estimated absolute RMS force accuracy = 0.0032163846
  estimated relative force accuracy = 9.6860467e-06
  3d grid and FFT values/proc = 6292 1344
Last active /omp style is kspace_style pppm/tip4p/omp
