LAMMPS (30 Jul 2021)
package omp 0
using multi-threaded neighbor list subroutines
echo both

include		in.partitions
variable        pid world 0
include		in.temp
variable	temperature equal 250
variable	melttemp equal 450.0
variable	tempDamp equal 100.0
include		in.pressure
variable        pressure equal 5000
variable        pressureDamp equal 1000.0 # This is 1 ps
include		in.seed
variable        seed world 745823

units		real
atom_style	full

include 	in.box

read_data       ice.data
Reading data file ...
  triclinic box = (-3.3947780 0.0048050000 -0.13785900) to (15.004777 45.145583 19.367857) with tilt (0.0000000 -6.7926110 0.0000000)
  reading atoms ...
  2016 atoms
  scanning bonds ...
  scanning angles ...
  reading bonds ...
  1344 bonds
  reading angles ...
  672 angles
Finding 1-2 1-3 1-4 neighbors ...
     2 = max # of 1-2 neighbors
     1 = max # of 1-3 neighbors
     1 = max # of 1-4 neighbors
     2 = max # of special neighbors
include 	in.setup
variable	out_freq equal 500
variable	out_freq2 equal 500

timestep	1.0

neigh_modify    delay 5 every 1

include		in.tip4p
# This is TIP4P/Ice

# create groups ###
group ox type 2
672 atoms in group ox
group hy type 1
1344 atoms in group hy

# set charges - beside manually ###
set group ox charge -1.1794
Setting atom values ...
  672 settings made for charge
set group hy charge 0.5897
Setting atom values ...
  1344 settings made for charge

# ### TIP3P Potential Parameters ###
pair_style lj/cut/tip4p/long 2 1 1 1 0.1577 8.5
pair_coeff 1 1*2 0.000 0.000
pair_coeff 2 2 0.21084 3.1668
bond_style  harmonic
bond_coeff  1 450 0.9572
angle_style harmonic
angle_coeff 1 55 104.52
kspace_style pppm/tip4p 1.0e-5
pair_modify tail yes

thermo          500
thermo_style 	custom step temp pe etotal epair emol press lx ly lz xy xz yz vol pxx pyy pzz pxy pxz pyz cella cellb cellc cellalpha cellbeta cellgamma

restart 	500 restart.lmp.0 restart2.lmp.0

include         in.dump
dump            myDump all atom 500 dump.water.0
dump_modify     myDump append yes

timer           timeout 23:50:00 every 1000
New timer settings: style=normal  mode=nosync  timeout=23:50:00

fix 		0 all shake 1e-6 200 0 b 1 a 1
       0 = # of size 2 clusters
       0 = # of size 3 clusters
       0 = # of size 4 clusters
     672 = # of frozen angles
  find clusters CPU = 0.021 seconds
fix             1 all nph tri 5000 5000 1000
fix             2 all temp/csvr 250 250 100 745823
velocity        all create 250 745823

run             500000
PPPM initialization ...
  extracting TIP4P info from pair style
  G vector (1/distance) = 0.37789371
  grid = 25 48 36
  stencil order = 5
  estimated absolute RMS force accuracy = 0.0026123984
  estimated relative force accuracy = 7.8671602e-06
  3d grid and FFT values/proc = 6615 1092
Last active /omp style is kspace_style pppm/tip4p/omp
  update every 1 steps, delay 5 steps, check yes
Step Temp PotEng TotEng E_pair E_mol Press Lx Ly Lz Xy Xz Yz Volume Pxx Pyy Pzz Pxy Pxz Pyz Cella Cellb Cellc CellAlpha CellBeta CellGamma
0          250   -10133.557   -9132.7495   -10133.557            0    -3299.268    18.399555    45.140778    19.505716            0    -6.792611            0    16200.867   -7058.7342   -3376.4904    537.42079    346.80239   -4913.0145   -3638.9603    18.399555    45.140778      20.6546           90    109.20001           90
Averages over the last 501 of 1001 rows, steps 250000 to 500000:
Temp PotEng TotEng E_pair E_mol Press Lx Ly Lz Xy Xz Yz Volume Pxx Pyy Pzz Pxy Pxz Pyz Cella Cellb Cellc CellAlpha CellBeta CellGamma
250.551 -9693.92 -8690.9 -9693.92 0 5050.77 18.0916 45.8905 19.4182 -0.279553 -6.55938 0.103844 16121.3 5057.33 5054.07 5040.9 -27.4114 2.41489 11.8758 18.0916 45.8921 20.4976 89.598 108.663 90.349
Loop time of 1068.95 on 42 procs for 500000 steps with 2016 atoms

unfix           1
unfix           2

# create group to melt
variable	meltPt equal (ylo)+(ly)/2.0
variable	xlo equal (xlo)
variable	xhi equal (xhi)
variable	ylo equal (ylo)
variable	yhi equal (yhi)
variable	zlo equal (zlo)
variable	zhi equal (zhi)

variable	xy equal (xy)
variable	xz equal (xz)
variable	yz equal (yz)

region		meltReg prism -3.19578491830773 14.8057839174242 22.5751939999983 45.5946408924156 -0.0976634255558189 19.3276614255552 -0.305715239697301 -6.65176623038361 0.158952076507876
units box
ERROR: Units command after simulation box is defined (../input.cpp:1932)
Last command: units box
