LAMMPS (30 Jul 2021)
package omp 0
using multi-threaded neighbor list subroutines
echo both

include		in.partitions
variable        pid world 0
include		in.temp
variable        temperature equal 265.20
variable	tempDamp equal 100.0
include		in.pressure
variable        pressure equal 9250.0
variable        pressureDamp equal 1000.0 # This is 1 ps
include		in.seed
variable        seed world 745823

units		real
atom_style	full
read_restart    restart.lmp.0
Reading restart file ...
  restart file = 30 Jul 2021, LAMMPS = 30 Jul 2021
  restoring atom style full from restart
  triclinic box = (-3.1174872 -0.25782854 0.021227169) to (14.727486 22.837828 19.208771) with tilt (-0.30129738 -6.5917414 0.41350899)
  restoring pair style lj/cut/tip4p/long/omp from restart
  restoring bond style harmonic/omp from restart
  restoring angle style harmonic/omp from restart
  1008 atoms
  672 bonds
  336 angles
Finding 1-2 1-3 1-4 neighbors ...
     2 = max # of 1-2 neighbors
     1 = max # of 1-3 neighbors
     1 = max # of 1-4 neighbors
     2 = max # of special neighbors
  read_restart CPU = 2.056 seconds

include 	in.setup
variable	out_freq equal 1000
variable	out_freq2 equal 10000
variable	out_freq3 equal 1000

timestep	2.0

neigh_modify    delay 7 every 1

include		in.tip4p
# This is TIP4P/Ice

# create groups ###
group ox type 2
336 atoms in group ox
group hy type 1
672 atoms in group hy

# set charges - beside manually ###
set group ox charge -1.1794
Setting atom values ...
  336 settings made for charge
set group hy charge 0.5897
Setting atom values ...
  672 settings made for charge

# ### TIP3P Potential Parameters ###
pair_style lj/cut/tip4p/long/omp 2 1 1 1 0.1577 8.5
pair_coeff 1 1*2 0.000 0.000
pair_coeff 2 2 0.21084 3.1668
bond_style  harmonic
bond_coeff  1 450 0.9572
angle_style harmonic
angle_coeff 1 55 104.52
kspace_style pppm/tip4p/omp 1.0e-5
pair_modify tail yes

thermo          1000
thermo_style    custom step temp pe etotal epair emol press lx ly lz vol pxx pyy pzz pxy pxz pyz enthalpy

restart 	1000 restart.lmp.0 restart2.lmp.0

include         in.dump
dump            myDump all atom 10000 dump.water.0
dump            myDump2 all dcd 10000 dump.dcd
dump_modify     myDump append yes
dump_modify     myDump2 append yes

variable natoms 	equal  "count(all)"                        # NUMBER ATOMS
variable H      	equal  "enthalpy/v_natoms"                 # ENTHALPY-per-atom
variable Vol      	equal  "vol/v_natoms"                 # volume-per-atom
fix AVG all 		ave/time 1000 1 1000 v_Vol v_H file vol_enthalpy.dat

fix 		1 all shake 1e-6 200 0 b 1 a 1
       0 = # of size 2 clusters
       0 = # of size 3 clusters
       0 = # of size 4 clusters
     336 = # of frozen angles
  find clusters CPU = 1.628 seconds
fix             2 all nph tri 9250 9250 1000
fix             3 all temp/csvr 265.2 265.2 100 745823

run             250000
PPPM initialization ...
  extracting TIP4P info from pair style
  G vector (1/distance) = 0.38379175
  grid = 24 30 32
  stencil order = 5
  estimated absolute RMS force accuracy = 0.0019112614
  estimated relative force accuracy = 5.7557069e-06
  3d grid and FFT values/proc = 4080 384
Last active /omp style is kspace_style pppm/tip4p/omp
  update every 1 steps, delay 7 steps, check yes
Step Temp PotEng TotEng E_pair E_mol Press Lx Ly Lz Volume Pxx Pyy Pzz Pxy Pxz Pyz Enthalpy
21000000    262.24226   -4773.6932   -4249.1763   -4773.6932            0    11004.523    17.844973    23.095656    19.187544    7907.9805    11329.341    11366.865    10317.362    218.55912    1378.7043   -1440.4999   -2980.0271
Averages over the last 126 of 251 rows, steps 21125000 to 21250000:
Temp PotEng TotEng E_pair E_mol Press Lx Ly Lz Volume Pxx Pyy Pzz Pxy Pxz Pyz Enthalpy
265.423 -4816.05 -4285.17 -4816.05 0 9264.96 17.8711 22.9943 19.2523 7910.89 9379.62 9196.85 9218.4 13.8309 24.2454 -157.338 -3216.67
Loop time of 526.069 on 64 procs for 250000 steps with 1008 atoms

unfix		3
unfix		2
unfix		1

write_data	data.final.0
System init for write_data ...
PPPM initialization ...
  extracting TIP4P info from pair style
  G vector (1/distance) = 0.3831723
  grid = 24 30 32
  stencil order = 5
  estimated absolute RMS force accuracy = 0.0019768433
  estimated relative force accuracy = 5.9532048e-06
  3d grid and FFT values/proc = 3825 384
Last active /omp style is kspace_style pppm/tip4p/omp

write_restart   restart.lmp.0
System init for write_restart ...
PPPM initialization ...
  extracting TIP4P info from pair style
  G vector (1/distance) = 0.3831723
  grid = 24 30 32
  stencil order = 5
  estimated absolute RMS force accuracy = 0.0019768433
  estimated relative force accuracy = 5.9532048e-06
  3d grid and FFT values/proc = 3825 384
Last active /omp style is kspace_style pppm/tip4p/omp
