#include		in.partitions
include		in.temp
variable        temperature equal 60.77
variable	tempDamp equal 100.0
include		in.pressure
variable        pressure equal 8196.6
variable        pressureDamp equal 1000.0 # This is 1 ps
include		in.seed
variable        seed equal 745823

units		real
atom_style	full
read_restart    restart.lmp.1
Reading restart file ...
  restart file = 30 Jul 2021, LAMMPS = 30 Jul 2021
  restoring atom style full from restart
  triclinic box = (-3.0960873 -0.034745901 0.088681301) to (14.706086 22.614745 19.141317) with tilt (-0.10772067 -6.5518765 0.10852713)
  restoring pair style lj/cut/tip4p/long/omp from restart
  restoring bond style harmonic/omp from restart
  restoring angle style harmonic/omp from restart
  1008 atoms
  672 bonds
  336 angles
Finding 1-2 1-3 1-4 neighbors ...
     2 = max # of 1-2 neighbors
     1 = max # of 1-3 neighbors
     1 = max # of 1-4 neighbors
     2 = max # of special neighbors
  read_restart CPU = 0.005 seconds

include 	in.setup
variable	out_freq equal 1000
variable	out_freq2 equal 10000
variable	out_freq3 equal 1000

timestep	2.0

neigh_modify    delay 7 every 1

include		in.tip4p
# This is TIP4P/Ice

# create groups ###
group ox type 2
336 atoms in group ox
group hy type 1
672 atoms in group hy

# set charges - beside manually ###
set group ox charge -1.1794
Setting atom values ...
  336 settings made for charge
set group hy charge 0.5897
Setting atom values ...
  672 settings made for charge

# ### TIP3P Potential Parameters ###
pair_style lj/cut/tip4p/long/omp 2 1 1 1 0.1577 8.5
pair_coeff 1 1*2 0.000 0.000
pair_coeff 2 2 0.21084 3.1668
bond_style  harmonic
bond_coeff  1 450 0.9572
angle_style harmonic
angle_coeff 1 55 104.52
kspace_style pppm/tip4p/omp 1.0e-5
pair_modify tail yes

thermo          1000
thermo_style    custom step temp pe etotal epair emol press lx ly lz vol pxx pyy pzz pxy pxz pyz enthalpy

restart 	1000 restart.lmp.1 restart2.lmp.1

include         in.dump
dump            myDump all atom 10000 dump.water.1
dump            myDump2 all dcd 10000 dump.dcd
dump_modify     myDump append yes
dump_modify     myDump2 append yes

variable natoms 	equal  "count(all)"                        # NUMBER ATOMS
variable H      	equal  "enthalpy/v_natoms"                 # ENTHALPY-per-atom
variable Vol      	equal  "vol/v_natoms"                 # volume-per-atom
fix AVG all 		ave/time 1000 1 1000 v_Vol v_H file vol_enthalpy.dat

fix 		1 all shake 1e-6 200 0 b 1 a 1
       0 = # of size 2 clusters
       0 = # of size 3 clusters
       0 = # of size 4 clusters
     336 = # of frozen angles
  find clusters CPU = 0.000 seconds
fix             2 all nph tri 8196.6 8196.6 1000
fix             3 all temp/csvr 60.77 60.77 100 745823

run             250000
PPPM initialization ...
  extracting TIP4P info from pair style
  G vector (1/distance) = 0.37991088
  grid = 24 27 32
  stencil order = 5
  estimated absolute RMS force accuracy = 0.0024021564
  estimated relative force accuracy = 7.2340227e-06
  3d grid and FFT values/proc = 7875 1344
Last active /omp style is kspace_style pppm/tip4p/omp
  update every 1 steps, delay 7 steps, check yes
Step Temp PotEng TotEng E_pair E_mol Press Lx Ly Lz Volume Pxx Pyy Pzz Pxy Pxz Pyz Enthalpy
40750000     63.14053   -5258.3192   -5132.0304   -5258.3192            0     7971.162    17.802174    22.649491    19.052635    7682.2163    7881.8535    7655.6917    8375.9409   -158.83168    117.19788   -19.140594   -4238.9634
Averages over the last 126 of 251 rows, steps 40875000 to 41000000:
Temp PotEng TotEng E_pair E_mol Press Lx Ly Lz Volume Pxx Pyy Pzz Pxy Pxz Pyz Enthalpy
60.8358 -5261.58 -5139.9 -5261.58 0 8223.01 17.7743 22.6426 19.0707 7675 8244.09 8245.88 8179.06 46.5253 72.0785 -44.177 -4219.58
Loop time of 563.182 on 64 procs for 250000 steps with 1008 atoms

unfix		3
unfix		2
unfix		1

write_data	data.final.1
System init for write_data ...
PPPM initialization ...
  extracting TIP4P info from pair style
  G vector (1/distance) = 0.38033072
  grid = 24 27 32
  stencil order = 5
  estimated absolute RMS force accuracy = 0.0023477893
  estimated relative force accuracy = 7.0702978e-06
  3d grid and FFT values/proc = 7875 1344
Last active /omp style is kspace_style pppm/tip4p/omp

write_restart   restart.lmp.1
System init for write_restart ...
PPPM initialization ...
  extracting TIP4P info from pair style
  G vector (1/distance) = 0.38033072
  grid = 24 27 32
  stencil order = 5
  estimated absolute RMS force accuracy = 0.0023477893
  estimated relative force accuracy = 7.0702978e-06
  3d grid and FFT values/proc = 7875 1344
Last active /omp style is kspace_style pppm/tip4p/omp
