LAMMPS (30 Jul 2021)
echo both

include		in.partitions
variable        pid world 0
include		in.temp
variable        temperature equal 250
variable	tempDamp equal 100.0
include		in.pressure
variable        pressure equal 5000
variable        pressureDamp equal 1000.0 # This is 1 ps
include		in.seed
variable        seed world 745823

units		real
atom_style	full
include		in.box
box tilt large
read_data       iceII.data
Reading data file ...
  triclinic box = (0.0000000 0.0000000 0.0000000) to (23.340000 21.468634 43.717812) with tilt (-9.1571470 3.9466400 5.9740430)
  reading atoms ...
  2592 atoms
  scanning bonds ...
  scanning angles ...
  reading bonds ...
  1728 bonds
  reading angles ...
  864 angles
Finding 1-2 1-3 1-4 neighbors ...
     2 = max # of 1-2 neighbors
     1 = max # of 1-3 neighbors
     1 = max # of 1-4 neighbors
     2 = max # of special neighbors
include 	in.setup
variable	out_freq equal 500
variable	out_freq2 equal 500

timestep	2.0

neigh_modify    delay 7 every 1

include		in.tip4p
# This is TIP4P/Ice

# create groups ###
group ox type 2
864 atoms in group ox
group hy type 1
1728 atoms in group hy

# set charges - beside manually ###
set group ox charge -1.1794
Setting atom values ...
  864 settings made for charge
set group hy charge 0.5897
Setting atom values ...
  1728 settings made for charge

# ### TIP3P Potential Parameters ###
pair_style lj/cut/tip4p/long 2 1 1 1 0.1577 8.5
pair_coeff 1 1*2 0.000 0.000
pair_coeff 2 2 0.21084 3.1668
bond_style  harmonic
bond_coeff  1 450 0.9572
angle_style harmonic
angle_coeff 1 55 104.52
kspace_style pppm/tip4p 1.0e-5
pair_modify tail yes

thermo          500
thermo_style 	custom step temp pe etotal epair emol press lx ly lz xy xz yz vol pxx pyy pzz pxy pxz pyz cella cellb cellc cellalpha cellbeta cellgamma

restart 	500 restart.lmp.0 restart2.lmp.0

include         in.dump
dump            myDump all atom 500 dump.water.0
dump            myDump2 all dcd 500 dump.dcd
dump_modify     myDump append yes
dump_modify     myDump2 append yes

timer           timeout 05:00:00 every 1000
New timer settings: style=normal  mode=nosync  timeout=05:00:00

fix 		1 all shake 1e-6 200 0 b 1 a 1
       0 = # of size 2 clusters
       0 = # of size 3 clusters
       0 = # of size 4 clusters
     864 = # of frozen angles
  find clusters CPU = 0.001 seconds
fix             2 all nph tri 5000 5000 1000
fix             3 all temp/csvr 250 250 100 745823
velocity 	all create 250 745823 dist gaussian

run             500000
PPPM initialization ...
  extracting TIP4P info from pair style
  G vector (1/distance) = 0.36656857
  grid = 30 40 60
  stencil order = 5
  estimated absolute RMS force accuracy = 0.0046837777
  estimated relative force accuracy = 1.4105057e-05
  3d grid and FFT values/proc = 4864 640
  update every 1 steps, delay 7 steps, check yes
Step Temp PotEng TotEng E_pair E_mol Press Lx Ly Lz Xy Xz Yz Volume Pxx Pyy Pzz Pxy Pxz Pyz Cella Cellb Cellc CellAlpha CellBeta CellGamma
0          250   -13874.649   -12587.684   -13874.649            0   -925.98207        23.34    21.468634    43.717812    -9.157147      3.94664     5.974043     21906.03   -4872.4853    -3111.836    5206.3751    1942.6037    3839.6679    1516.9332        23.34        23.34    44.300251    84.888832    84.888832        113.1
Averages over the last 501 of 1001 rows, steps 250000 to 500000:
Temp PotEng TotEng E_pair E_mol Press Lx Ly Lz Xy Xz Yz Volume Pxx Pyy Pzz Pxy Pxz Pyz Cella Cellb Cellc CellAlpha CellBeta CellGamma
250.308 -12657.3 -11368.7 -12657.3 0 4990.33 23.379 21.4863 43.5147 -9.2126 3.75668 5.69957 21858.2 4980.53 5017.82 4972.65 10.6253 14.5785 -21.8963 23.379 23.3783 44.0481 85.1055 85.1075 113.208
Loop time of 1544.81 on 128 procs for 500000 steps with 2592 atoms

unfix		3
unfix		2
unfix		1

write_data	data.final.0
System init for write_data ...
PPPM initialization ...
  extracting TIP4P info from pair style
  G vector (1/distance) = 0.36666475
  grid = 30 40 60
  stencil order = 5
  estimated absolute RMS force accuracy = 0.0046625183
  estimated relative force accuracy = 1.4041035e-05
  3d grid and FFT values/proc = 4864 640

write_restart   restart.lmp.0
System init for write_restart ...
PPPM initialization ...
  extracting TIP4P info from pair style
  G vector (1/distance) = 0.36666475
  grid = 30 40 60
  stencil order = 5
  estimated absolute RMS force accuracy = 0.0046625183
  estimated relative force accuracy = 1.4041035e-05
  3d grid and FFT values/proc = 4864 640
