LAMMPS (30 Jul 2021)
package omp 0
using multi-threaded neighbor list subroutines
echo both

include		in.partitions
variable        pid world 0
include		in.temp
variable	temperature equal 250.0
variable	tempDamp equal 100.0
include		in.pressure
variable        pressure equal 3000
variable        pressureDamp equal 1000.0 # This is 1 ps
include		in.seed
variable        seed world 745823

units		real
atom_style	full
include		in.box
box tilt large
read_data       iceII.data
Reading data file ...
  triclinic box = (-9.1550010 -6.9293180 -0.0020880000) to (14.184999 14.539316 16.392087) with tilt (-9.1571480 -9.1571500 -13.861210)
  reading atoms ...
  972 atoms
  scanning bonds ...
  scanning angles ...
  reading bonds ...
  648 bonds
  reading angles ...
  324 angles
Finding 1-2 1-3 1-4 neighbors ...
     2 = max # of 1-2 neighbors
     1 = max # of 1-3 neighbors
     1 = max # of 1-4 neighbors
     2 = max # of special neighbors
include 	in.setup
variable	out_freq equal 500
variable	out_freq2 equal 500

timestep	2.0

neigh_modify    delay 7 every 1

include		in.tip4p
# This is TIP4P/Ice

# create groups ###
group ox type 2
324 atoms in group ox
group hy type 1
648 atoms in group hy

# set charges - beside manually ###
set group ox charge -1.1794
Setting atom values ...
  324 settings made for charge
set group hy charge 0.5897
Setting atom values ...
  648 settings made for charge

# ### TIP3P Potential Parameters ###
pair_style lj/cut/tip4p/long 2 1 1 1 0.1577 8.5
pair_coeff 1 1*2 0.000 0.000
pair_coeff 2 2 0.21084 3.1668
bond_style  harmonic
bond_coeff  1 450 0.9572
angle_style harmonic
angle_coeff 1 55 104.52
kspace_style pppm/tip4p 1.0e-5
pair_modify tail yes

thermo          500
thermo_style 	custom step temp pe etotal epair emol press lx ly lz xy xz yz vol pxx pyy pzz pxy pxz pyz

restart 	500 restart.lmp.0 restart2.lmp.0

include         in.dump
dump            myDump all atom 500 dump.water.0
dump            myDump2 all dcd 500 dump.dcd
dump_modify     myDump append yes
dump_modify     myDump2 append yes

timer           timeout 00:55:00 every 1000
New timer settings: style=normal  mode=nosync  timeout=00:55:00

fix 		1 all shake 1e-6 200 0 b 1 a 1
       0 = # of size 2 clusters
       0 = # of size 3 clusters
       0 = # of size 4 clusters
     324 = # of frozen angles
  find clusters CPU = 0.000 seconds
fix             2 all nph tri 3000 3000 1000
fix             3 all temp/csvr 250 250 100 745823
velocity 	all create 250 745823 dist gaussian

run             500000
PPPM initialization ...
  extracting TIP4P info from pair style
  G vector (1/distance) = 0.38865022
  grid = 30 36 48
  stencil order = 5
  estimated absolute RMS force accuracy = 0.0014031681
  estimated relative force accuracy = 4.2255991e-06
  3d grid and FFT values/proc = 108147 51840
Last active /omp style is kspace_style pppm/tip4p/omp
  update every 1 steps, delay 7 steps, check yes
Step Temp PotEng TotEng E_pair E_mol Press Lx Ly Lz Xy Xz Yz Volume Pxx Pyy Pzz Pxy Pxz Pyz
0          250   -5198.6593   -4716.5133   -5198.6593            0   -760.20735        23.34    21.468634    16.394175    -9.157148     -9.15715    -13.86121    8214.7591   -1735.9577   -8457.2034     7912.539    3270.5799    963.31467    192.02314
Averages over the last 234 of 467 rows, steps 116500 to 233000:
Temp PotEng TotEng E_pair E_mol Press Lx Ly Lz Xy Xz Yz Volume Pxx Pyy Pzz Pxy Pxz Pyz
250.004 -4738.93 -4256.78 -4738.93 0 2882.82 23.4511 21.5579 16.3991 -9.22956 4.98289 7.56117 8290.22 2876.75 2930.92 2840.79 -91.7856 148.788 -23.731
Loop time of 3305.03 on 16 procs for 233000 steps with 972 atoms

unfix		3
unfix		2
unfix		1

write_data	data.final.0
System init for write_data ...
PPPM initialization ...
  extracting TIP4P info from pair style
  G vector (1/distance) = 0.3403549
  grid = 30 36 36
  stencil order = 5
  estimated absolute RMS force accuracy = 0.017822919
  estimated relative force accuracy = 5.367319e-05
  3d grid and FFT values/proc = 82485 38880
Last active /omp style is kspace_style pppm/tip4p/omp

write_restart   restart.lmp.0
System init for write_restart ...
PPPM initialization ...
  extracting TIP4P info from pair style
  G vector (1/distance) = 0.3403549
  grid = 30 36 36
  stencil order = 5
  estimated absolute RMS force accuracy = 0.017822919
  estimated relative force accuracy = 5.367319e-05
  3d grid and FFT values/proc = 82485 38880
Last active /omp style is kspace_style pppm/tip4p/omp
