LAMMPS (30 Jul 2021)
Processor partition = 3
using multi-threaded neighbor list subroutines

include		in.partitions
variable        pid world 0 1 2 3

include		in.temp
variable        temperature equal 230.0
variable	tempDamp equal 100.0
include		in.pressure
variable        pressure equal 1000.0
variable        pressureDamp equal 1000.0 # This is 1 ps
include		in.seed
variable        seed world 745823 746732 192377 12321

units		real
atom_style	full
include		in.box
box tilt large
read_data       water.data
Reading data file ...
  triclinic box = (0.0000000 0.0000000 0.0000000) to (48.231335 21.596001 16.455999) with tilt (-9.2337990 -18.467001 7.6068000)
  reading atoms ...
  1944 atoms
  scanning bonds ...
  scanning angles ...
  reading velocities ...
  1944 velocities
  reading bonds ...
  1296 bonds
  reading angles ...
  648 angles
Finding 1-2 1-3 1-4 neighbors ...
     2 = max # of 1-2 neighbors
     1 = max # of 1-3 neighbors
     1 = max # of 1-4 neighbors
     2 = max # of special neighbors
include 	in.setup
variable	out_freq equal 500
variable	out_freq2 equal 500

timestep	2.0

neigh_modify    delay 7 every 1

include		in.tip4p
# This is TIP4P/Ice

# create groups ###
group ox type 2
648 atoms in group ox
group hy type 1
1296 atoms in group hy

# set charges - beside manually ###
set group ox charge -1.1794
Setting atom values ...
  648 settings made for charge
set group hy charge 0.5897
Setting atom values ...
  1296 settings made for charge

# ### TIP3P Potential Parameters ###
pair_style lj/cut/tip4p/long 2 1 1 1 0.1577 8.5
pair_coeff 1 1*2 0.000 0.000
pair_coeff 2 2 0.21084 3.1668
bond_style  harmonic
bond_coeff  1 450 0.9572
angle_style harmonic
angle_coeff 1 55 104.52
kspace_style pppm/tip4p 1.0e-5
pair_modify tail yes

thermo          500
thermo_style 	custom step temp pe etotal epair emol press lx ly lz vol pxx pyy pzz pxy pxz pyz

restart 	500 restart.lmp.3 restart2.lmp.3

timer           timeout 23:30:00 every 1000
New timer settings: style=normal  mode=nosync  timeout=23:30:00

fix             1 all plumed plumedfile plumed.equil.dat outfile plumed.equil.out
fix 		2 all shake 1e-6 200 0 b 1 a 1
Finding SHAKE clusters ...
       0 = # of size 2 clusters
       0 = # of size 3 clusters
       0 = # of size 4 clusters
     648 = # of frozen angles
  find clusters CPU = 0.000 seconds
fix             3 all nph x 1000 1000 1000
fix             4 all temp/csvr 230 230 100 12321
velocity 	all create 230 12321 dist gaussian

run             5000 upto
PPPM initialization ...
  extracting TIP4P info from pair style
  G vector (1/distance) = 0.38082859
  grid = 50 40 50
  stencil order = 5
  estimated absolute RMS force accuracy = 0.0021234448
  estimated relative force accuracy = 6.3946908e-06
  3d grid and FFT values/proc = 15162 4000
Last active /omp style is kspace_style pppm/tip4p/omp
  update every 1 steps, delay 7 steps, check yes
Setting up Verlet run ...
  Unit style    : real
  Current step  : 0
  Time step     : 2
  Walltime left : 23:29:59.54
Step Temp PotEng TotEng E_pair E_mol Press Lx Ly Lz Volume Pxx Pyy Pzz Pxy Pxz Pyz
0          230   -9209.5875   -8321.7532   -9209.5875            0    57738.412    48.231335    21.596001    16.455999    17140.634    59124.295    58893.075    55197.865    1277.2688   -329.26645   -1015.8365
Averages over the last 6 of 11 rows, steps 2500 to 5000:
Temp PotEng TotEng E_pair E_mol Press Lx Ly Lz Volume Pxx Pyy Pzz Pxy Pxz Pyz
228.323 -9199.16 -8317.8 -9199.75 0 2471.49 49.1503 21.596 16.456 17467.2 2019.97 2419.59 2974.92 269.395 -84.9114 393.645
Loop time of 50.4434 on 32 procs for 5000 steps with 1944 atoms
