LAMMPS (30 Jul 2021)
package omp 0
using multi-threaded neighbor list subroutines
echo both

include		in.partitions
variable        pid world 0
include		in.temp
variable	temperature equal 270
variable	melttemp equal 450.0
variable	tempDamp equal 100.0
include		in.pressure
variable        pressure equal 1000
variable        pressureDamp equal 1000.0 # This is 1 ps
include		in.seed
variable        seed world 745823

units		real
atom_style	full

include 	in.box

read_data       ice.data
Reading data file ...
  orthogonal box = (0.0000000 0.0000000 0.0000000) to (18.207572 23.629178 22.213196)
  reading atoms ...
  864 atoms
  reading velocities ...
  864 velocities
  scanning bonds ...
  scanning angles ...
  reading bonds ...
  576 bonds
  reading angles ...
  288 angles
Finding 1-2 1-3 1-4 neighbors ...
     2 = max # of 1-2 neighbors
     1 = max # of 1-3 neighbors
     1 = max # of 1-4 neighbors
     2 = max # of special neighbors
include 	in.setup
variable	out_freq equal 500
variable	out_freq2 equal 500

timestep	1.0

neigh_modify    delay 5 every 1

include		in.tip4p
# This is TIP4P/Ice

# create groups ###
group ox type 2
288 atoms in group ox
group hy type 1
576 atoms in group hy

# set charges - beside manually ###
set group ox charge -1.1794
Setting atom values ...
  288 settings made for charge
set group hy charge 0.5897
Setting atom values ...
  576 settings made for charge

# ### TIP3P Potential Parameters ###
pair_style lj/cut/tip4p/long 2 1 1 1 0.1577 8.5
pair_coeff 1 1*2 0.000 0.000
pair_coeff 2 2 0.21084 3.1668
bond_style  harmonic
bond_coeff  1 450 0.9572
angle_style harmonic
angle_coeff 1 55 104.52
kspace_style pppm/tip4p 1.0e-5
pair_modify tail yes

thermo          500
thermo_style 	custom step temp pe etotal epair emol press lx ly lz xy xz yz vol pxx pyy pzz pxy pxz pyz cella cellb cellc cellalpha cellbeta cellgamma

restart 	500 restart.lmp.0 restart2.lmp.0

include         in.dump
dump            myDump all atom 500 dump.water.0
dump_modify     myDump append yes

timer           timeout 23:50:00 every 1000
New timer settings: style=normal  mode=nosync  timeout=23:50:00

fix 		0 all shake 1e-6 200 0 b 1 a 1
       0 = # of size 2 clusters
       0 = # of size 3 clusters
       0 = # of size 4 clusters
     288 = # of frozen angles
  find clusters CPU = 0.001 seconds
fix             1 all nph aniso 1000 1000 1000
fix             2 all temp/csvr 270 270 100 745823
velocity        all create 270 745823

run             500000
PPPM initialization ...
  extracting TIP4P info from pair style
  G vector (1/distance) = 0.37089722
  grid = 24 27 25
  stencil order = 5
  estimated absolute RMS force accuracy = 0.0032495733
  estimated relative force accuracy = 9.7859934e-06
  3d grid and FFT values/proc = 4032 480
Last active /omp style is kspace_style pppm/tip4p/omp
  update every 1 steps, delay 5 steps, check yes
Step Temp PotEng TotEng E_pair E_mol Press Lx Ly Lz Xy Xz Yz Volume Pxx Pyy Pzz Pxy Pxz Pyz Cella Cellb Cellc CellAlpha CellBeta CellGamma
0          270   -5396.4194   -4933.6487   -5396.4194            0   -6889.0119    18.207572    23.629178    22.213196            0            0            0    9556.7825   -3635.4126   -8502.8055   -8528.8176   -2826.4388   -6493.7441    2632.7342    18.207572    23.629178    22.213196           90           90           90
Averages over the last 501 of 1001 rows, steps 250000 to 500000:
Temp PotEng TotEng E_pair E_mol Press Lx Ly Lz Xy Xz Yz Volume Pxx Pyy Pzz Pxy Pxz Pyz Cella Cellb Cellc CellAlpha CellBeta CellGamma
270.838 -4211.04 -3746.83 -4211.04 0 918.545 18.1531 23.4522 22.1416 0 0 0 9425.68 965.488 872.418 917.728 -108.676 1.84715 91.5354 18.1531 23.4522 22.1416 90 90 90
Loop time of 511.134 on 42 procs for 500000 steps with 864 atoms

write_restart   restart.equil
System init for write_restart ...
PPPM initialization ...
  extracting TIP4P info from pair style
  G vector (1/distance) = 0.3715986
  grid = 24 27 25
  stencil order = 5
  estimated absolute RMS force accuracy = 0.0031677344
  estimated relative force accuracy = 9.5395382e-06
  3d grid and FFT values/proc = 4032 480
Last active /omp style is kspace_style pppm/tip4p/omp
write_data   	water.equil.data nocoeff
System init for write_data ...
PPPM initialization ...
  extracting TIP4P info from pair style
  G vector (1/distance) = 0.3715986
  grid = 24 27 25
  stencil order = 5
  estimated absolute RMS force accuracy = 0.0031677344
  estimated relative force accuracy = 9.5395382e-06
  3d grid and FFT values/proc = 4032 480
Last active /omp style is kspace_style pppm/tip4p/omp
