#include		in.partitions
include		in.temp
variable        temperature equal 126.85
variable	tempDamp equal 100.0
include		in.pressure
variable        pressure equal 5918.8
variable        pressureDamp equal 1000.0 # This is 1 ps
include		in.seed
variable        seed equal 745823

units		real
atom_style	full
box tilt large
read_restart	restart.lmp.0
Reading restart file ...
  restart file = 30 Jul 2021, LAMMPS = 30 Jul 2021
  restoring atom style full from restart
  triclinic box = (-10.567569 -9.2477310 0.17201918) to (12.547569 12.237729 21.687980) with tilt (-9.1402400 1.8171677 2.7871484)
  restoring pair style lj/cut/tip4p/long/omp from restart
  restoring bond style harmonic/omp from restart
  restoring angle style harmonic/omp from restart
  1296 atoms
  864 bonds
  432 angles
Finding 1-2 1-3 1-4 neighbors ...
     2 = max # of 1-2 neighbors
     1 = max # of 1-3 neighbors
     1 = max # of 1-4 neighbors
     2 = max # of special neighbors
  read_restart CPU = 0.020 seconds
include 	in.setup
variable	out_freq equal 1000
variable	out_freq2 equal 10000
variable	out_freq3 equal 1000

timestep	2.0

neigh_modify    delay 7 every 1

include		in.tip4p
# This is TIP4P/Ice

# create groups ###
group ox type 2
432 atoms in group ox
group hy type 1
864 atoms in group hy

# set charges - beside manually ###
set group ox charge -1.1794
Setting atom values ...
  432 settings made for charge
set group hy charge 0.5897
Setting atom values ...
  864 settings made for charge

# ### TIP3P Potential Parameters ###
pair_style lj/cut/tip4p/long/omp 2 1 1 1 0.1577 8.5
pair_coeff 1 1*2 0.000 0.000
pair_coeff 2 2 0.21084 3.1668
bond_style  harmonic
bond_coeff  1 450 0.9572
angle_style harmonic
angle_coeff 1 55 104.52
kspace_style pppm/tip4p/omp 1.0e-5
pair_modify tail yes

thermo          1000
thermo_style    custom step temp pe etotal epair emol press lx ly lz vol pxx pyy pzz pxy pxz pyz enthalpy

restart 	1000 restart.lmp.0 restart2.lmp.0

include         in.dump
dump            myDump all atom 10000 dump.water.0
dump            myDump2 all dcd 10000 dump.dcd
dump_modify     myDump append yes
dump_modify     myDump2 append yes

variable natoms 	equal  "count(all)"                        # NUMBER ATOMS
variable H      	equal  "enthalpy/v_natoms"                 # ENTHALPY-per-atom
variable Vol      	equal  "vol/v_natoms"                 # volume-per-atom
fix AVG all 		ave/time 1000 1 1000 v_Vol v_H file vol_enthalpy.dat

timer           timeout 10:00:00 every 1000
New timer settings: style=normal  mode=nosync  timeout=10:00:00

fix 		1 all shake 1e-6 200 0 b 1 a 1
       0 = # of size 2 clusters
       0 = # of size 3 clusters
       0 = # of size 4 clusters
     432 = # of frozen angles
  find clusters CPU = 0.001 seconds
fix             2 all nph tri 5918.8 5918.8 1000
fix             3 all temp/csvr 126.85 126.85 100 745823

run             250000
PPPM initialization ...
  extracting TIP4P info from pair style
  G vector (1/distance) = 0.36903861
  grid = 30 40 32
  stencil order = 5
  estimated absolute RMS force accuracy = 0.0041586725
  estimated relative force accuracy = 1.2523719e-05
  3d grid and FFT values/proc = 5168 640
Last active /omp style is kspace_style pppm/tip4p/omp
  update every 1 steps, delay 7 steps, check yes
Step Temp PotEng TotEng E_pair E_mol Press Lx Ly Lz Volume Pxx Pyy Pzz Pxy Pxz Pyz Enthalpy
15500000    134.69337    -6691.807   -6345.3165    -6691.807            0    4794.2268    23.115139     21.48546    21.515961    10685.673    5227.2333    3254.5763    5900.8708   -213.93108    961.90882   -111.08505   -5598.1862
Averages over the last 126 of 251 rows, steps 15625000 to 15750000:
Temp PotEng TotEng E_pair E_mol Press Lx Ly Lz Volume Pxx Pyy Pzz Pxy Pxz Pyz Enthalpy
126.406 -6689.06 -6363.89 -6689.06 0 5888.43 23.1892 21.2792 21.5343 10625.8 5870.91 5919.44 5874.94 -69.4735 -37.8995 -55.1959 -5451.62
Loop time of 534.607 on 64 procs for 250000 steps with 1296 atoms

unfix		3
unfix		2
unfix		1

write_data	data.final.0
System init for write_data ...
PPPM initialization ...
  extracting TIP4P info from pair style
  G vector (1/distance) = 0.36884913
  grid = 30 40 32
  stencil order = 5
  estimated absolute RMS force accuracy = 0.0042092976
  estimated relative force accuracy = 1.2676175e-05
  3d grid and FFT values/proc = 5168 640
Last active /omp style is kspace_style pppm/tip4p/omp

write_restart   restart.lmp.0
System init for write_restart ...
PPPM initialization ...
  extracting TIP4P info from pair style
  G vector (1/distance) = 0.36884913
  grid = 30 40 32
  stencil order = 5
  estimated absolute RMS force accuracy = 0.0042092976
  estimated relative force accuracy = 1.2676175e-05
  3d grid and FFT values/proc = 5168 640
Last active /omp style is kspace_style pppm/tip4p/omp
