LAMMPS (30 Jul 2021)
Processor partition = 0
using multi-threaded neighbor list subroutines
variable        pid world 0 1
variable        phase world IceII IceIII

shell cd IceII
include Restart.lmp
echo both
log log.lammps
#include		in.partitions
include		in.temp
variable        temperature equal 135.25
variable	tempDamp equal 100.0
include		in.pressure
variable        pressure equal 8293.8
variable        pressureDamp equal 1000.0 # This is 1 ps
include		in.seed
variable        seed equal 745823

units		real
atom_style	full
box tilt large
read_restart	restart.lmp.0
Reading restart file ...
  restart file = 30 Jul 2021, LAMMPS = 30 Jul 2021
  restoring atom style full from restart
  triclinic box = (-10.594929 -9.0593070 0.13979171) to (12.574929 12.049305 21.720207) with tilt (-8.9972320 1.8565247 2.6738756)
  restoring pair style lj/cut/tip4p/long/omp from restart
  restoring bond style harmonic/omp from restart
  restoring angle style harmonic/omp from restart
  1296 atoms
  864 bonds
  432 angles
Finding 1-2 1-3 1-4 neighbors ...
     2 = max # of 1-2 neighbors
     1 = max # of 1-3 neighbors
     1 = max # of 1-4 neighbors
     2 = max # of special neighbors
  read_restart CPU = 0.017 seconds
include 	in.setup
variable	out_freq equal 1000
variable	out_freq2 equal 10000
variable	out_freq3 equal 1000

timestep	2.0

neigh_modify    delay 7 every 1

include		in.tip4p
# This is TIP4P/Ice

# create groups ###
group ox type 2
432 atoms in group ox
group hy type 1
864 atoms in group hy

# set charges - beside manually ###
set group ox charge -1.1794
Setting atom values ...
  432 settings made for charge
set group hy charge 0.5897
Setting atom values ...
  864 settings made for charge

# ### TIP3P Potential Parameters ###
pair_style lj/cut/tip4p/long/omp 2 1 1 1 0.1577 8.5
pair_coeff 1 1*2 0.000 0.000
pair_coeff 2 2 0.21084 3.1668
bond_style  harmonic
bond_coeff  1 450 0.9572
angle_style harmonic
angle_coeff 1 55 104.52
kspace_style pppm/tip4p/omp 1.0e-5
pair_modify tail yes

thermo          1000
thermo_style    custom step temp pe etotal epair emol press lx ly lz vol pxx pyy pzz pxy pxz pyz enthalpy

restart 	1000 restart.lmp.0 restart2.lmp.0

include         in.dump
dump            myDump all atom 10000 dump.water.0
dump            myDump2 all dcd 10000 dump.dcd
dump_modify     myDump append yes
dump_modify     myDump2 append yes

variable natoms 	equal  "count(all)"                        # NUMBER ATOMS
variable H      	equal  "enthalpy/v_natoms"                 # ENTHALPY-per-atom
variable Vol      	equal  "vol/v_natoms"                 # volume-per-atom
fix AVG all 		ave/time 1000 1 1000 v_Vol v_H file vol_enthalpy.dat

timer           timeout 10:00:00 every 1000
New timer settings: style=normal  mode=nosync  timeout=10:00:00

fix 		1 all shake 1e-6 200 0 b 1 a 1
Finding SHAKE clusters ...
       0 = # of size 2 clusters
       0 = # of size 3 clusters
       0 = # of size 4 clusters
     432 = # of frozen angles
  find clusters CPU = 0.001 seconds
fix             2 all nph tri 8293.8 8293.8 1000
fix             3 all temp/csvr 135.25 135.25 100 745823

run             250000
PPPM initialization ...
  extracting TIP4P info from pair style
  G vector (1/distance) = 0.37110221
  grid = 30 36 32
  stencil order = 5
  estimated absolute RMS force accuracy = 0.003747081
  estimated relative force accuracy = 1.1284223e-05
  3d grid and FFT values/proc = 4896 600
Last active /omp style is kspace_style pppm/tip4p/omp
  update every 1 steps, delay 7 steps, check yes
Setting up Verlet run ...
  Unit style    : real
  Current step  : 25000000
  Time step     : 2
  Walltime left : 9:59:59.89
Step Temp PotEng TotEng E_pair E_mol Press Lx Ly Lz Volume Pxx Pyy Pzz Pxy Pxz Pyz Enthalpy
25000000    140.47801   -6651.6063   -6290.2352   -6651.6063            0    8068.0228    23.169858    21.108612    21.580416    10554.626    8685.8015    8791.8636    6726.4033   -502.17535   -226.85012    58.729351   -5048.3374
Averages over the last 126 of 251 rows, steps 25125000 to 25250000:
Temp PotEng TotEng E_pair E_mol Press Lx Ly Lz Volume Pxx Pyy Pzz Pxy Pxz Pyz Enthalpy
134.725 -6663.12 -6316.55 -6663.12 0 8267.24 23.1192 21.2476 21.4426 10533.1 8335.65 8101.36 8364.71 -35.5246 37.2428 5.19158 -5046.84
Loop time of 505.379 on 64 procs for 250000 steps with 1296 atoms

unfix		3
unfix		2
unfix		1

write_data	data.final.0
System init for write_data ...
PPPM initialization ...
  extracting TIP4P info from pair style
  G vector (1/distance) = 0.36882502
  grid = 30 40 32
  stencil order = 5
  estimated absolute RMS force accuracy = 0.0042324926
  estimated relative force accuracy = 1.2746026e-05
  3d grid and FFT values/proc = 5168 640
Last active /omp style is kspace_style pppm/tip4p/omp

write_restart   restart.lmp.0
System init for write_restart ...
PPPM initialization ...
  extracting TIP4P info from pair style
  G vector (1/distance) = 0.36882502
  grid = 30 40 32
  stencil order = 5
  estimated absolute RMS force accuracy = 0.0042324926
  estimated relative force accuracy = 1.2746026e-05
  3d grid and FFT values/proc = 5168 640
Last active /omp style is kspace_style pppm/tip4p/omp
