LAMMPS (30 Jul 2021)
package omp 0
using multi-threaded neighbor list subroutines
echo both

include		in.partitions
variable        pid world 0
include		in.temp
variable	temperature equal 250.0
variable	tempDamp equal 100.0
include		in.pressure
variable        pressure equal 7500
variable        pressureDamp equal 1000.0 # This is 1 ps
include		in.seed
variable        seed world 745823

units		real
atom_style	full
include		in.box
read_data       water.data
Reading data file ...
  orthogonal box = (0.0000000 1.0915313 0.0000000) to (18.207572 22.537647 22.213196)
  reading atoms ...
  864 atoms
  reading velocities ...
  864 velocities
  scanning bonds ...
  scanning angles ...
  reading bonds ...
  576 bonds
  reading angles ...
  288 angles
Finding 1-2 1-3 1-4 neighbors ...
     2 = max # of 1-2 neighbors
     1 = max # of 1-3 neighbors
     1 = max # of 1-4 neighbors
     2 = max # of special neighbors
include 	in.setup
variable	out_freq equal 500
variable	out_freq2 equal 500

timestep	2.0

neigh_modify    delay 7 every 1

include		in.tip4p
# This is TIP4P/Ice

# create groups ###
group ox type 2
288 atoms in group ox
group hy type 1
576 atoms in group hy

# set charges - beside manually ###
set group ox charge -1.1794
Setting atom values ...
  288 settings made for charge
set group hy charge 0.5897
Setting atom values ...
  576 settings made for charge

# ### TIP3P Potential Parameters ###
pair_style lj/cut/tip4p/long 2 1 1 1 0.1577 8.5
pair_coeff 1 1*2 0.000 0.000
pair_coeff 2 2 0.21084 3.1668
bond_style  harmonic
bond_coeff  1 450 0.9572
angle_style harmonic
angle_coeff 1 55 104.52
kspace_style pppm/tip4p 1.0e-5
pair_modify tail yes

thermo          500
thermo_style 	custom step temp pe etotal epair emol press lx ly lz vol pxx pyy pzz pxy pxz pyz

restart 	500 restart.lmp.0 restart2.lmp.0

include         in.dump
dump            myDump all atom 500 dump.water.0
dump            myDump2 all dcd 500 dump.dcd
dump_modify     myDump append yes
dump_modify     myDump2 append yes

timer           timeout 00:55:00 every 1000
New timer settings: style=normal  mode=nosync  timeout=00:55:00

fix 		1 all shake 1e-6 200 0 b 1 a 1
       0 = # of size 2 clusters
       0 = # of size 3 clusters
       0 = # of size 4 clusters
     288 = # of frozen angles
  find clusters CPU = 0.000 seconds
fix             2 all nph iso 7500 7500 1000
fix             3 all temp/csvr 250 250 100 745823
velocity 	all create 250 745823 dist gaussian

run             500000
PPPM initialization ...
  extracting TIP4P info from pair style
  G vector (1/distance) = 0.37144849
  grid = 24 25 25
  stencil order = 5
  estimated absolute RMS force accuracy = 0.0033118622
  estimated relative force accuracy = 9.9735747e-06
  3d grid and FFT values/proc = 33792 15000
Last active /omp style is kspace_style pppm/tip4p/omp
  update every 1 steps, delay 7 steps, check yes
Step Temp PotEng TotEng E_pair E_mol Press Lx Ly Lz Volume Pxx Pyy Pzz Pxy Pxz Pyz
0          250   -3852.2439   -3423.7525   -3852.2439            0    2962.6983    18.207572    21.446115    22.213196    8673.8464     2645.686    3255.3905    2987.0185    2059.0609   -2061.3767    -1725.181
Averages over the last 501 of 1001 rows, steps 250000 to 500000:
Temp PotEng TotEng E_pair E_mol Press Lx Ly Lz Volume Pxx Pyy Pzz Pxy Pxz Pyz
250.375 -3913.3 -3484.16 -3913.3 0 7543.53 17.0248 20.0529 20.7702 7091.05 7554.08 7691.96 7384.57 140.375 -12.9098 24.2542
Loop time of 1216.6 on 32 procs for 500000 steps with 864 atoms

unfix		3
unfix		2
unfix		1

write_data	data.final.0
System init for write_data ...
PPPM initialization ...
  extracting TIP4P info from pair style
  G vector (1/distance) = 0.37410908
  grid = 24 24 24
  stencil order = 5
  estimated absolute RMS force accuracy = 0.0031784482
  estimated relative force accuracy = 9.5718022e-06
  3d grid and FFT values/proc = 31713 13824
Last active /omp style is kspace_style pppm/tip4p/omp

write_restart   restart.lmp.0
System init for write_restart ...
PPPM initialization ...
  extracting TIP4P info from pair style
  G vector (1/distance) = 0.37410908
  grid = 24 24 24
  stencil order = 5
  estimated absolute RMS force accuracy = 0.0031784482
  estimated relative force accuracy = 9.5718022e-06
  3d grid and FFT values/proc = 31713 13824
Last active /omp style is kspace_style pppm/tip4p/omp
