LAMMPS (30 Jul 2021)
Processor partition = 1
using multi-threaded neighbor list subroutines
variable        pid world 0 1
variable        phase world IceII IceVI

shell cd IceVI
include Restart.lmp
echo both
log log.lammps
#include		in.partitions
include		in.temp
variable        temperature equal 0.49
variable	tempDamp equal 100.0
include		in.pressure
variable        pressure equal 9176.7
variable        pressureDamp equal 1000.0 # This is 1 ps
include		in.seed
variable        seed equal 745823

units		real
atom_style	full
read_restart	restart.lmp.1
Reading restart file ...
  restart file = 30 Jul 2021, LAMMPS = 30 Jul 2021
  restoring atom style full from restart
  orthogonal box = (0.099403782 0.069598203 0.096218698) to (24.630597 24.660403 22.713781)
  restoring pair style lj/cut/tip4p/long/omp from restart
  restoring bond style harmonic/omp from restart
  restoring angle style harmonic/omp from restart
  1920 atoms
  1280 bonds
  640 angles
Finding 1-2 1-3 1-4 neighbors ...
     2 = max # of 1-2 neighbors
     1 = max # of 1-3 neighbors
     1 = max # of 1-4 neighbors
     2 = max # of special neighbors
  read_restart CPU = 0.008 seconds
include 	in.setup
variable	out_freq equal 1000
variable	out_freq2 equal 10000
variable	out_freq3 equal 1000

timestep	2.0

neigh_modify    delay 7 every 1

include		in.tip4p
# This is TIP4P/Ice

# create groups ###
group ox type 2
640 atoms in group ox
group hy type 1
1280 atoms in group hy

# set charges - beside manually ###
set group ox charge -1.1794
Setting atom values ...
  640 settings made for charge
set group hy charge 0.5897
Setting atom values ...
  1280 settings made for charge

# ### TIP3P Potential Parameters ###
pair_style lj/cut/tip4p/long/omp 2 1 1 1 0.1577 8.5
pair_coeff 1 1*2 0.000 0.000
pair_coeff 2 2 0.21084 3.1668
bond_style  harmonic
bond_coeff  1 450 0.9572
angle_style harmonic
angle_coeff 1 55 104.52
kspace_style pppm/tip4p/omp 1.0e-5
pair_modify tail yes

thermo          1000
thermo_style    custom step temp pe etotal epair emol press lx ly lz vol pxx pyy pzz pxy pxz pyz enthalpy

restart 	1000 restart.lmp.1 restart2.lmp.1

include         in.dump
dump            myDump all atom 10000 dump.water.1
dump            myDump2 all dcd 10000 dump.dcd
dump_modify     myDump append yes
dump_modify     myDump2 append yes

variable natoms 	equal  "count(all)"                        # NUMBER ATOMS
variable H      	equal  "enthalpy/v_natoms"                 # ENTHALPY-per-atom
variable Vol      	equal  "vol/v_natoms"                 # volume-per-atom
fix AVG all 		ave/time 1000 1 1000 v_Vol v_H file vol_enthalpy.dat

fix 		1 all shake 1e-6 200 0 b 1 a 1
Finding SHAKE clusters ...
       0 = # of size 2 clusters
       0 = # of size 3 clusters
       0 = # of size 4 clusters
     640 = # of frozen angles
  find clusters CPU = 0.001 seconds
fix             2 all nph aniso 9176.7 9176.7 1000
fix             3 all temp/csvr 0.49 0.49 100 745823

run             250000
PPPM initialization ...
  extracting TIP4P info from pair style
  G vector (1/distance) = 0.37570765
  grid = 30 30 30
  stencil order = 5
  estimated absolute RMS force accuracy = 0.003127084
  estimated relative force accuracy = 9.4171205e-06
  3d grid and FFT values/proc = 5400 960
Last active /omp style is kspace_style pppm/tip4p/omp
  update every 1 steps, delay 7 steps, check yes
Setting up Verlet run ...
  Unit style    : real
  Current step  : 16000000
  Time step     : 2
Step Temp PotEng TotEng E_pair E_mol Press Lx Ly Lz Volume Pxx Pyy Pzz Pxy Pxz Pyz Enthalpy
16000000    2.9365596   -10138.169   -10126.974   -10138.169            0    9218.2714    24.531193    24.590805    22.617563    13643.859    9269.9077    9170.3788    9214.5277   -182.33575   -179.55513    87.953237   -8292.7065
Averages over the last 126 of 251 rows, steps 16125000 to 16250000:
Temp PotEng TotEng E_pair E_mol Press Lx Ly Lz Volume Pxx Pyy Pzz Pxy Pxz Pyz Enthalpy
0.490096 -10147.4 -10145.5 -10147.4 0 9176.13 24.5442 24.5783 22.6107 13640 9176.4 9175.03 9176.96 -165.377 -191.629 120.915 -8320.12
Loop time of 616.311 on 64 procs for 250000 steps with 1920 atoms

unfix		3
unfix		2
unfix		1

write_data	data.final.1
System init for write_data ...
PPPM initialization ...
  extracting TIP4P info from pair style
  G vector (1/distance) = 0.37571162
  grid = 30 30 30
  stencil order = 5
  estimated absolute RMS force accuracy = 0.0031267969
  estimated relative force accuracy = 9.4162561e-06
  3d grid and FFT values/proc = 5400 960
Last active /omp style is kspace_style pppm/tip4p/omp

write_restart   restart.lmp.1
System init for write_restart ...
PPPM initialization ...
  extracting TIP4P info from pair style
  G vector (1/distance) = 0.37571162
  grid = 30 30 30
  stencil order = 5
  estimated absolute RMS force accuracy = 0.0031267969
  estimated relative force accuracy = 9.4162561e-06
  3d grid and FFT values/proc = 5400 960
Last active /omp style is kspace_style pppm/tip4p/omp
