LAMMPS (30 Jul 2021)
package omp 0
using multi-threaded neighbor list subroutines
echo both

include		in.partitions
variable        pid world 0
include		in.temp
variable        temperature equal 260
variable	tempDamp equal 100.0
include		in.pressure
variable        pressure equal 4000
variable        pressureDamp equal 1000.0 # This is 1 ps
include		in.seed
variable        seed world 745823

units		real
atom_style	full
include		in.box
read_data       iceIII.data
Reading data file ...
  orthogonal box = (0.0071020000 0.0044740000 -0.050387000) to (46.652896 19.995527 20.750385)
  reading atoms ...
  2268 atoms
  scanning bonds ...
  scanning angles ...
  reading bonds ...
  1512 bonds
  reading angles ...
  756 angles
Finding 1-2 1-3 1-4 neighbors ...
     2 = max # of 1-2 neighbors
     1 = max # of 1-3 neighbors
     1 = max # of 1-4 neighbors
     2 = max # of special neighbors
include 	in.setup
variable	out_freq equal 500
variable	out_freq2 equal 500

timestep	2.0

neigh_modify    delay 7 every 1

include		in.tip4p
# This is TIP4P/Ice

# create groups ###
group ox type 2
756 atoms in group ox
group hy type 1
1512 atoms in group hy

# set charges - beside manually ###
set group ox charge -1.1794
Setting atom values ...
  756 settings made for charge
set group hy charge 0.5897
Setting atom values ...
  1512 settings made for charge

# ### TIP3P Potential Parameters ###
pair_style lj/cut/tip4p/long 2 1 1 1 0.1577 8.5
pair_coeff 1 1*2 0.000 0.000
pair_coeff 2 2 0.21084 3.1668
bond_style  harmonic
bond_coeff  1 450 0.9572
angle_style harmonic
angle_coeff 1 55 104.52
kspace_style pppm/tip4p 1.0e-5
pair_modify tail yes

thermo          500
thermo_style 	custom step temp pe etotal epair emol press lx ly lz xy xz yz vol pxx pyy pzz pxy pxz pyz cella cellb cellc cellalpha cellbeta cellgamma

restart 	500 restart.lmp.0 restart2.lmp.0

include         in.dump
dump            myDump all atom 500 dump.water.0
dump            myDump2 all dcd 500 dump.dcd
dump_modify     myDump append yes
dump_modify     myDump2 append yes

timer           timeout 04:55:00 every 1000
New timer settings: style=normal  mode=nosync  timeout=04:55:00

fix 		1 all shake 1e-6 200 0 b 1 a 1
       0 = # of size 2 clusters
       0 = # of size 3 clusters
       0 = # of size 4 clusters
     756 = # of frozen angles
  find clusters CPU = 0.001 seconds
fix             2 all nph aniso 4000 4000 1000
fix             3 all temp/csvr 260 260 100 745823
velocity 	all create 260 745823 dist gaussian

run             500000
PPPM initialization ...
  extracting TIP4P info from pair style
  G vector (1/distance) = 0.3731327
  grid = 48 27 27
  stencil order = 5
  estimated absolute RMS force accuracy = 0.0032773105
  estimated relative force accuracy = 9.8695233e-06
  3d grid and FFT values/proc = 6292 1344
Last active /omp style is kspace_style pppm/tip4p/omp
  update every 1 steps, delay 7 steps, check yes
Step Temp PotEng TotEng E_pair E_mol Press Lx Ly Lz Xy Xz Yz Volume Pxx Pyy Pzz Pxy Pxz Pyz Cella Cellb Cellc CellAlpha CellBeta CellGamma
0          260   -11706.567   -10535.526   -11706.567            0    2285.8901    46.645794    19.991053    20.800772            0            0            0     19396.69    5251.6641    3267.3946   -1661.3883    1623.4411   -1524.8903   -175.59418    46.645794    19.991053    20.800772           90           90           90
Averages over the last 501 of 1001 rows, steps 250000 to 500000:
Temp PotEng TotEng E_pair E_mol Press Lx Ly Lz Xy Xz Yz Volume Pxx Pyy Pzz Pxy Pxz Pyz Cella Cellb Cellc CellAlpha CellBeta CellGamma
260.101 -10946.4 -9774.9 -10946.4 0 3931.37 46.8027 20.0462 20.8133 0 0 0 19526.9 3905.61 3931.01 3957.5 -52.3329 19.9079 101.611 46.8027 20.0462 20.8133 90 90 90
Loop time of 1444 on 32 procs for 500000 steps with 2268 atoms

unfix		3
unfix		2
unfix		1

write_data	data.final.0
System init for write_data ...
PPPM initialization ...
  extracting TIP4P info from pair style
  G vector (1/distance) = 0.37293058
  grid = 48 27 27
  stencil order = 5
  estimated absolute RMS force accuracy = 0.0032973341
  estimated relative force accuracy = 9.9298236e-06
  3d grid and FFT values/proc = 6006 1344
Last active /omp style is kspace_style pppm/tip4p/omp

write_restart   restart.lmp.0
System init for write_restart ...
PPPM initialization ...
  extracting TIP4P info from pair style
  G vector (1/distance) = 0.37293058
  grid = 48 27 27
  stencil order = 5
  estimated absolute RMS force accuracy = 0.0032973341
  estimated relative force accuracy = 9.9298236e-06
  3d grid and FFT values/proc = 6006 1344
Last active /omp style is kspace_style pppm/tip4p/omp
