LAMMPS (30 Jul 2021)
package omp 0
using multi-threaded neighbor list subroutines
echo both

include		in.partitions
variable        pid world 0
include		in.temp
variable        temperature equal 246.29
variable	tempDamp equal 100.0
include		in.pressure
variable        pressure equal 3500.0
variable        pressureDamp equal 1000.0 # This is 1 ps
include		in.seed
variable        seed world 745823

units		real
atom_style	full
read_restart	restart.lmp.0
Reading restart file ...
  restart file = 30 Jul 2021, LAMMPS = 30 Jul 2021
  restoring atom style full from restart
  orthogonal box = (0.40949707 1.5738647 0.49958546) to (17.798075 22.055313 21.713610)
  restoring pair style lj/cut/tip4p/long/omp from restart
  restoring bond style harmonic/omp from restart
  restoring angle style harmonic/omp from restart
  864 atoms
  576 bonds
  288 angles
Finding 1-2 1-3 1-4 neighbors ...
     2 = max # of 1-2 neighbors
     1 = max # of 1-3 neighbors
     1 = max # of 1-4 neighbors
     2 = max # of special neighbors
  read_restart CPU = 0.259 seconds
include 	in.setup
variable	out_freq equal 1000
variable	out_freq2 equal 10000
variable	out_freq3 equal 1000

timestep	2.0

neigh_modify    delay 7 every 1

include		in.tip4p
# This is TIP4P/Ice

# create groups ###
group ox type 2
288 atoms in group ox
group hy type 1
576 atoms in group hy

# set charges - beside manually ###
set group ox charge -1.1794
Setting atom values ...
  288 settings made for charge
set group hy charge 0.5897
Setting atom values ...
  576 settings made for charge

# ### TIP3P Potential Parameters ###
pair_style lj/cut/tip4p/long/omp 2 1 1 1 0.1577 8.5
pair_coeff 1 1*2 0.000 0.000
pair_coeff 2 2 0.21084 3.1668
bond_style  harmonic
bond_coeff  1 450 0.9572
angle_style harmonic
angle_coeff 1 55 104.52
kspace_style pppm/tip4p/omp 1.0e-5
pair_modify tail yes

thermo          1000
thermo_style    custom step temp pe etotal epair emol press lx ly lz vol pxx pyy pzz pxy pxz pyz enthalpy

restart 	1000 restart.lmp.0 restart2.lmp.0

include         in.dump
dump            myDump all atom 10000 dump.water.0
dump            myDump2 all dcd 10000 dump.dcd
dump_modify     myDump append yes
dump_modify     myDump2 append yes

variable natoms 	equal  "count(all)"                        # NUMBER ATOMS
variable H      	equal  "enthalpy/v_natoms"                 # ENTHALPY-per-atom
variable Vol      	equal  "vol/v_natoms"                 # volume-per-atom
fix AVG all 		ave/time 1000 1 1000 v_Vol v_H file vol_enthalpy.dat

timer           timeout 23:50:00 every 1000
New timer settings: style=normal  mode=nosync  timeout=23:50:00

fix 		1 all shake 1e-6 200 0 b 1 a 1
       0 = # of size 2 clusters
       0 = # of size 3 clusters
       0 = # of size 4 clusters
     288 = # of frozen angles
  find clusters CPU = 0.308 seconds
fix             2 all nph iso 3500 3500 1000
fix             3 all temp/csvr 246.29 246.29 100 745823

run             250000
PPPM initialization ...
  extracting TIP4P info from pair style
  G vector (1/distance) = 0.37383897
  grid = 24 24 25
  stencil order = 5
  estimated absolute RMS force accuracy = 0.0031190767
  estimated relative force accuracy = 9.3930068e-06
  3d grid and FFT values/proc = 2730 288
Last active /omp style is kspace_style pppm/tip4p/omp
  update every 1 steps, delay 7 steps, check yes
Step Temp PotEng TotEng E_pair E_mol Press Lx Ly Lz Volume Pxx Pyy Pzz Pxy Pxz Pyz Enthalpy
10250000    244.82517   -3894.2693   -3474.6473   -3894.2693            0    3983.7055    17.388578    20.481448    21.214025    7555.2321    4917.0235     2533.998    4500.0949   -31.207102   -1192.8328    1102.0102   -3035.7015
Averages over the last 126 of 251 rows, steps 10375000 to 10500000:
Temp PotEng TotEng E_pair E_mol Press Lx Ly Lz Volume Pxx Pyy Pzz Pxy Pxz Pyz Enthalpy
245.615 -3923.92 -3502.95 -3923.92 0 3560.61 17.4278 20.5277 21.2619 7606.91 3650.95 3402.87 3628.01 17.0655 8.77125 47.1393 -3108.59
Loop time of 461.001 on 64 procs for 250000 steps with 864 atoms

unfix		3
unfix		2
unfix		1

write_data	data.final.0
System init for write_data ...
PPPM initialization ...
  extracting TIP4P info from pair style
  G vector (1/distance) = 0.3738499
  grid = 24 24 25
  stencil order = 5
  estimated absolute RMS force accuracy = 0.0031178484
  estimated relative force accuracy = 9.389308e-06
  3d grid and FFT values/proc = 2730 288
Last active /omp style is kspace_style pppm/tip4p/omp

write_restart   restart.lmp.0
System init for write_restart ...
PPPM initialization ...
  extracting TIP4P info from pair style
  G vector (1/distance) = 0.3738499
  grid = 24 24 25
  stencil order = 5
  estimated absolute RMS force accuracy = 0.0031178484
  estimated relative force accuracy = 9.389308e-06
  3d grid and FFT values/proc = 2730 288
Last active /omp style is kspace_style pppm/tip4p/omp
