LAMMPS (30 Jul 2021)
echo both

include		in.partitions
variable        pid world 0
include		in.temp
variable	temperature equal 250.0
variable	melttemp equal 450.0
variable	tempDamp equal 100.0
include		in.pressure
variable        pressure equal 3000.
variable        pressureDamp equal 1000.0 # This is 1 ps
include		in.seed
variable        seed world 745823

units		real
atom_style	full
box tilt large
include		in.box
#box tilt large
read_data       iceII.data
Reading data file ...
  triclinic box = (0.0000000 0.0000000 0.0000000) to (23.340000 21.468634 43.717812) with tilt (-9.1571470 3.9466400 5.9740430)
  reading atoms ...
  2592 atoms
  scanning bonds ...
  scanning angles ...
  reading bonds ...
  1728 bonds
  reading angles ...
  864 angles
Finding 1-2 1-3 1-4 neighbors ...
     2 = max # of 1-2 neighbors
     1 = max # of 1-3 neighbors
     1 = max # of 1-4 neighbors
     2 = max # of special neighbors
include 	in.setup
variable	out_freq equal 500
variable	out_freq2 equal 500

timestep	1.0

neigh_modify    delay 5 every 1

include		in.tip4p
# This is TIP4P/Ice

# create groups ###
group ox type 2
864 atoms in group ox
group hy type 1
1728 atoms in group hy

# set charges - beside manually ###
set group ox charge -1.1794
Setting atom values ...
  864 settings made for charge
set group hy charge 0.5897
Setting atom values ...
  1728 settings made for charge

# ### TIP3P Potential Parameters ###
pair_style lj/cut/tip4p/long 2 1 1 1 0.1577 8.5
pair_coeff 1 1*2 0.000 0.000
pair_coeff 2 2 0.21084 3.1668
bond_style  harmonic
bond_coeff  1 450 0.9572
angle_style harmonic
angle_coeff 1 55 104.52
kspace_style pppm/tip4p 1.0e-5
pair_modify tail yes

thermo          500
thermo_style 	custom step temp pe etotal epair emol press lx ly lz xy xz yz vol pxx pyy pzz pxy pxz pyz

restart 	500 restart.lmp.0 restart2.lmp.0

include         in.dump
dump            myDump all atom 500 dump.water.0
dump_modify     myDump append yes

timer           timeout 23:50:00 every 1000
New timer settings: style=normal  mode=nosync  timeout=23:50:00

fix 		0 all shake 1e-6 200 0 b 1 a 1
       0 = # of size 2 clusters
       0 = # of size 3 clusters
       0 = # of size 4 clusters
     864 = # of frozen angles
  find clusters CPU = 0.001 seconds
fix             1 all nph tri 3000 3000 1000
fix             2 all temp/csvr 250 250 100 745823
velocity        all create 250 745823

run             500000
PPPM initialization ...
  extracting TIP4P info from pair style
  G vector (1/distance) = 0.36656857
  grid = 30 40 60
  stencil order = 5
  estimated absolute RMS force accuracy = 0.0046837777
  estimated relative force accuracy = 1.4105057e-05
  3d grid and FFT values/proc = 4864 640
  update every 1 steps, delay 5 steps, check yes
Step Temp PotEng TotEng E_pair E_mol Press Lx Ly Lz Xy Xz Yz Volume Pxx Pyy Pzz Pxy Pxz Pyz
0          250   -13874.649   -12587.684   -13874.649            0  -0.97605256        23.34    21.468634    43.717812    -9.157147      3.94664     5.974043     21906.03   -2056.1656    598.81805    1454.4194   -1341.7911    3861.6805    4780.7709
Averages over the last 501 of 1001 rows, steps 250000 to 500000:
Temp PotEng TotEng E_pair E_mol Press Lx Ly Lz Xy Xz Yz Volume Pxx Pyy Pzz Pxy Pxz Pyz
250.11 -12645.9 -11358.3 -12645.9 0 2997.98 23.4482 21.555 43.7218 -9.22772 3.81917 5.80108 22097.8 2969.47 3027.35 2997.12 22.1569 32.9746 -5.05607
Loop time of 1589.96 on 128 procs for 500000 steps with 2592 atoms

unfix           1
unfix           2

# create group to melt
variable	meltPt equal (zlo)+(lz)/2.0
variable	xlo equal (xlo)-100
variable	xhi equal (xhi)+100
variable	ylo equal (ylo)-100
variable	yhi equal (yhi)+100
variable	zlo equal (zlo)
variable	zhi equal (zhi)

variable	xy equal (xy)
variable	xz equal (xz)
variable	yz equal (yz)

region 		meltReg block -100.042947372044 INF -100.125512835408 INF 21.8589059999989 INF
group		tstatGrp region meltReg
1294 atoms in group tstatGrp

# melt half the box in NPT
fix             1 tstatGrp nph x 3000 3000 1000
fix		2 tstatGrp temp/csvr 250 450 100 745823

run             25000
PPPM initialization ...
  extracting TIP4P info from pair style
  G vector (1/distance) = 0.36771664
  grid = 30 40 60
  stencil order = 5
  estimated absolute RMS force accuracy = 0.004382967
  estimated relative force accuracy = 1.3199175e-05
  3d grid and FFT values/proc = 4864 640
Step Temp PotEng TotEng E_pair E_mol Press Lx Ly Lz Xy Xz Yz Volume Pxx Pyy Pzz Pxy Pxz Pyz
500000    246.91341   -12609.979   -11338.904   -12609.979            0    3303.2672    23.425895     21.71966    43.439254   -9.1969543    3.2917317    6.2041882    22101.999    4123.6243    2842.9314    2943.2459    633.39221     779.7994   -382.70266
Averages over the last 26 of 51 rows, steps 512500 to 525000:
Temp PotEng TotEng E_pair E_mol Press Lx Ly Lz Xy Xz Yz Volume Pxx Pyy Pzz Pxy Pxz Pyz
325.184 -12171.5 -10497.5 -12171.5 0 4874.47 23.4744 21.7197 43.4393 -9.19695 3.29173 6.20419 22147.7 2639.79 5944.8 6038.82 -56.1838 891.821 -555.304
Loop time of 79.7842 on 128 procs for 25000 steps with 2592 atoms

write_restart   restart.melted
System init for write_restart ...
PPPM initialization ...
  extracting TIP4P info from pair style
  G vector (1/distance) = 0.36771257
  grid = 30 40 60
  stencil order = 5
  estimated absolute RMS force accuracy = 0.0043791094
  estimated relative force accuracy = 1.3187558e-05
  3d grid and FFT values/proc = 4864 640
write_data   	water.data.melted
System init for write_data ...
PPPM initialization ...
  extracting TIP4P info from pair style
  G vector (1/distance) = 0.36771257
  grid = 30 40 60
  stencil order = 5
  estimated absolute RMS force accuracy = 0.0043791094
  estimated relative force accuracy = 1.3187558e-05
  3d grid and FFT values/proc = 4864 640

unfix 		2
fix		2 tstatGrp temp/csvr 450 450 100 745823

run             100000
PPPM initialization ...
  extracting TIP4P info from pair style
  G vector (1/distance) = 0.36771257
  grid = 30 40 60
  stencil order = 5
  estimated absolute RMS force accuracy = 0.0043791094
  estimated relative force accuracy = 1.3187558e-05
  3d grid and FFT values/proc = 4864 640
Step Temp PotEng TotEng E_pair E_mol Press Lx Ly Lz Xy Xz Yz Volume Pxx Pyy Pzz Pxy Pxz Pyz
525000    352.86925   -11907.203   -10090.681   -11907.203            0    7508.6219    23.476086     21.71966    43.439254   -9.1969543    3.2917317    6.2041882    22149.353    7129.1717    7684.1074    7712.5866    1403.6951    835.03604   -817.81528
Averages over the last 101 of 201 rows, steps 575000 to 625000:
Temp PotEng TotEng E_pair E_mol Press Lx Ly Lz Xy Xz Yz Volume Pxx Pyy Pzz Pxy Pxz Pyz
349.667 -11209.2 -9409.12 -11209.2 0 5200.47 23.5263 21.7197 43.4393 -9.19695 3.29173 6.20419 22196.7 2962.57 6479.88 6158.96 -107.668 632.861 -310.35
Loop time of 347.987 on 128 procs for 100000 steps with 2592 atoms

write_restart   restart.melted
System init for write_restart ...
PPPM initialization ...
  extracting TIP4P info from pair style
  G vector (1/distance) = 0.36770785
  grid = 30 40 60
  stencil order = 5
  estimated absolute RMS force accuracy = 0.004375299
  estimated relative force accuracy = 1.3176083e-05
  3d grid and FFT values/proc = 4864 640
write_data   	water.data.melted
System init for write_data ...
PPPM initialization ...
  extracting TIP4P info from pair style
  G vector (1/distance) = 0.36770785
  grid = 30 40 60
  stencil order = 5
  estimated absolute RMS force accuracy = 0.004375299
  estimated relative force accuracy = 1.3176083e-05
  3d grid and FFT values/proc = 4864 640

unfix 		2
fix		2 tstatGrp temp/csvr 450 250 100 745823

run             25000
PPPM initialization ...
  extracting TIP4P info from pair style
  G vector (1/distance) = 0.36770785
  grid = 30 40 60
  stencil order = 5
  estimated absolute RMS force accuracy = 0.004375299
  estimated relative force accuracy = 1.3176083e-05
  3d grid and FFT values/proc = 4864 640
Step Temp PotEng TotEng E_pair E_mol Press Lx Ly Lz Xy Xz Yz Volume Pxx Pyy Pzz Pxy Pxz Pyz
625000    347.13942   -11202.253   -9415.2284   -11202.253            0    6328.8774    23.527545     21.71966    43.439254   -9.1969543    3.2917317    6.2041882    22197.905    5300.9776    6902.4612    6783.1934    175.12189    526.11244   -207.15118
Averages over the last 26 of 51 rows, steps 637500 to 650000:
Temp PotEng TotEng E_pair E_mol Press Lx Ly Lz Xy Xz Yz Volume Pxx Pyy Pzz Pxy Pxz Pyz
276.395 -11866.1 -10443.3 -11866.1 0 3764.02 23.5432 21.7197 43.4393 -9.19695 3.29173 6.20419 22212.7 2911.44 4452.31 3928.3 320.866 483.524 -375.701
Loop time of 78.8691 on 128 procs for 25000 steps with 2592 atoms

write_restart   restart.melted
System init for write_restart ...
PPPM initialization ...
  extracting TIP4P info from pair style
  G vector (1/distance) = 0.3677075
  grid = 30 40 60
  stencil order = 5
  estimated absolute RMS force accuracy = 0.0043750399
  estimated relative force accuracy = 1.3175303e-05
  3d grid and FFT values/proc = 4864 640
write_data   	water.data.melted
System init for write_data ...
PPPM initialization ...
  extracting TIP4P info from pair style
  G vector (1/distance) = 0.3677075
  grid = 30 40 60
  stencil order = 5
  estimated absolute RMS force accuracy = 0.0043750399
  estimated relative force accuracy = 1.3175303e-05
  3d grid and FFT values/proc = 4864 640

# enable motion of ice oxygens
unfix		1
unfix		2
fix             1 all nph x 3000 3000 1000
fix             2 all temp/csvr 250 250 100 745823
velocity        all create 250 745823

run             100000
PPPM initialization ...
  extracting TIP4P info from pair style
  G vector (1/distance) = 0.3677075
  grid = 30 40 60
  stencil order = 5
  estimated absolute RMS force accuracy = 0.0043750399
  estimated relative force accuracy = 1.3175303e-05
  3d grid and FFT values/proc = 4864 640
Step Temp PotEng TotEng E_pair E_mol Press Lx Ly Lz Xy Xz Yz Volume Pxx Pyy Pzz Pxy Pxz Pyz
650000          250   -12120.038   -10833.074   -12120.038            0    5208.0105    23.531118     21.71966    43.439254   -9.1969543    3.2917317    6.2041882    22201.276    7634.0796    7669.9802    319.97176   -539.53217    3622.5901    -2774.023
Averages over the last 101 of 201 rows, steps 700000 to 750000:
Temp PotEng TotEng E_pair E_mol Press Lx Ly Lz Xy Xz Yz Volume Pxx Pyy Pzz Pxy Pxz Pyz
249.841 -12189.1 -10903 -12189.1 0 3568.49 23.6519 21.7197 43.4393 -9.19695 3.29173 6.20419 22315.3 2916.71 3207.18 4581.58 -134.222 88.4193 -12.1733
Loop time of 315.732 on 128 procs for 100000 steps with 2592 atoms

write_restart   restart.equil
System init for write_restart ...
PPPM initialization ...
  extracting TIP4P info from pair style
  G vector (1/distance) = 0.36768412
  grid = 30 40 60
  stencil order = 5
  estimated absolute RMS force accuracy = 0.0043618849
  estimated relative force accuracy = 1.3135687e-05
  3d grid and FFT values/proc = 4864 640
write_data   	water.data.equil
System init for write_data ...
PPPM initialization ...
  extracting TIP4P info from pair style
  G vector (1/distance) = 0.36768412
  grid = 30 40 60
  stencil order = 5
  estimated absolute RMS force accuracy = 0.0043618849
  estimated relative force accuracy = 1.3135687e-05
  3d grid and FFT values/proc = 4864 640
